      Date: 06/12/2020      Time: 11:48:13  

     ___________________________________________________
     |                                                 |
     |  Livermore  Software  Technology  Corporation   |
     |                                                 |
     |  7374 Las Positas Road                          |
     |  Livermore, CA 94551                            |
     |  Tel: (925) 449-2500  Fax: (925) 449-2507       |
     |  www.lstc.com                                   |
     |_________________________________________________|
     |                                                 |
     |  LS-DYNA, A Program for Nonlinear Dynamic       |
     |  Analysis of Structures in Three Dimensions     |
     |  Version : smp s R9.3.1    Date: 09/24/2019     |
     |  Revision: 140922          Time: 08:43:37       |
     |                                                 |
     |  Features enabled in this version:              |
     |    Shared Memory Parallel                       |
     |    FFTW (multi-dimensional FFTW Library)        |
     |    Interactive Graphics                         |
     |    ANSYS Database format                        |
     |    ANSYS License (ANSYS150)                     |
     |    MADYMO indirect coupling (7.2 or higher)     |
     |    Big ID option                                |
     |                                                 |
     |  Licensed to: Institut fr Modellierung und Simul|
     |  Issued by  : dynamore_10212019                 |
     |                                                 |
     |  Platform   : WINDOWS X64 (SSE2)                |
     |  OS Level   : Windows 7/8/10 & Srv 2008/2012 R2 |
     |  Compiler   : Intel Fortran XE 2016 MSVC++ 2010 |
     |  Hostname   : imsb-Sidious                      |
     |  Precision  : Single precision (I4R4)           |
     |  SVN Version: 140923                            |
     |                                                 |
     |  Unauthorized use infringes LSTC copyrights     |
     |_________________________________________________|


 Input file: D:\Simulations\ViVA\FrontalImpact_SimplifiedNeck\run_frontal_impact.key         

 The native file format       : 32-bit small endian
 Memory size from command line:    51000000

 ********  notice  ********  notice  ********  notice  ********
 *                                                            *
 * This is the LS-DYNA Finite Element code.                   *
 *                                                            *
 * Neither LSTC nor the authors assume any responsibility for *
 * the validity, accuracy, or applicability of any results    *
 * obtained from this system. The user must verify his own    *
 * results.                                                   *
 *                                                            *
 * LSTC endeavors to make the LS-DYNA code as complete,       *
 * accurate and easy to use as possible.                      *
 * Suggestions and comments are welcomed.  Please report any  *
 * errors encountered in either the documentation or results  *
 * immediately to LSTC through your site focus.               *
 *                                                            *
 * Copyright (C) 1990-2018                                    *
 * by Livermore Software Technology Corp. (LSTC)              *
 * All rights reserved                                        *
 *                                                            *
 ********  notice  ********  notice  ********  notice  ********

 Beginning of keyword reader                                   06/12/20 11:48:13
 allocating  memory to    51000000 d         600 beginning of keyword reader

 *COMMENT
 This is the OpenHBM 50th Percentile Female Occupant Model
 Copyright (C) <2014->  <Jonas Östh, Karin Brolin, Manuel Mendoza-Vazquez>
  
 This Model is free software: you can redistribute it and/or modify
 it under the terms of the GNU General Public License as published by
 the Free Software Foundation, either version 3 of the License, or
 (at your option) any later version.
  
 This Model is distributed in the hope that it will be useful,
 but WITHOUT ANY WARRANTY; without even the implied warranty of
 MERCHANTABILITY or FITNESS FOR A PARTICULAR PURPOSE.  See the
 GNU General Public License for more details.
  
 You should have received a copy of the GNU General Public License
 along with this Model.  If not, see <http://www.gnu.org/licenses/>.
  
 Additional permission under GNU GPL version 3 section 7
 If you modify this Model, or any covered work, by linking it with
 another model, the licensors of this Model grant you additional
 permission to convey the resulting work.
  
 IN ADDITION TO THE LIMITATIONS OF LIABILITY REGULATED IN THIS LICENSE,
 THE FOLLOWING LIMITATIONS OF LIABILITY SHALL APPLY: IN NO EVENT UNLESS
 REQUIRED BY APPLICABLE LAW SHALL ANY COPYRIGHT HOLDER, OR ANY OTHER PARTY
 WHO MODIFIES AND/OR CONVEYS THE MODEL AS PERMITTED IN ACCORDANCE WITH
 THIS LICENSE, BE LIABLE TO YOU FOR ANY INDIRECT OR DIRECT DAMAGES,
 INCLUDING BUT NOT LIMITED TO DEATH, BODILY INJURY AND PROPERTY DAMAGES
 (PUBLIC OR PRIVATE), EVEN IF SUCH HOLDER OR OTHER PARTY HAS BEEN ADVISED
 OF THE POSSIBILITY OF SUCH DAMAGES.
 ANY USE OF THE SOFTWARE IS AT YOUR OWN RISK.
  
 For more info see https://www.chalmers.se/en/projects/Pages/OpenHBM.aspx
 expanding   memory to      799406 d         600  
 expanding   memory to     4380002 d         600  
 expanding   memory to     4422932 d         600  
 expanding   memory to     5748764 d         600  
 expanding   memory to     5859250 d         600  
 expanding   memory to     5891950 d         600  
 expanding   memory to     5972788 d         600  
 expanding   memory to     5993188 d         600  
 expanding   memory to     6023788 d         600  
 expanding   memory to     6046468 d         600  
 expanding   memory to     6184816 d         600  
 expanding   memory to     7396448 d         600  
 expanding   memory to     8608080 d         600  
 expanding   memory to     8639828 d         600  
 expanding   memory to     8661012 d         600  
 expanding   memory to     8766012 d         600  
 expanding   memory to     8790292 d         600  

 Open include file: VIVA_OpenHBM_F50_Control_20160912.key

 Open include file: buck_geom.key

 Open include file: buck_part_data.key

 Open include file: seat_belt.key
 expanding   memory to     8972378 d         600  
 expanding   memory to     8996578 d         600  
 expanding   memory to     9082184 d         600  

 Open include file: VIVA_OpenHBM_F50_Geom_SCspine_20161202.key

 Open include file: VIVA_OpenHBM_F50_HN_Contacts_SCspine_20160912.key
 expanding   memory to     9104692 d         600  

 Open include file: VIVA_OpenHBM_F50_HN_Part_Data_SCspine_20161206.key
 expanding   memory to     9125864 d         600  

 Open include file: VIVA_OpenHBM_F50_LOWEX_Part_Data_20161109.key

 Open include file: VIVA_OpenHBM_F50_T_Contacts_20160912.key

 Open include file: VIVA_OpenHBM_F50_T_Part_Data_20160912.key

 Open include file: VIVA_OpenHBM_F50_UPEX_Part_Data_20160912.key
 expanding   memory to     9145870 d        1080  
 expanding   memory to     9183760 d        1200  
 expanding   memory to     9224040 d        1200  
 expanding   memory to     9354642 d        1812  
 expanding   memory to     9483544 d        1812  
 expanding   memory to    11183822 d        1812  
 expanding   memory to    11289308 d        1812  
 expanding   memory to    11394794 d        1812  
 expanding   memory to    11523696 d        1812  
 expanding   memory to    11652598 d     3853866  

 Memory required to process keyword     :    11652598 
 contracting memory to           1 d        1812 end of keyword reader

 LS-DYNA will perform a structural only analysis 

 LS-DYNA keyword deck by LS-PrePost                                      
                         ls-dyna smp.140922 s           date 09/24/2019
 expanding   memory to      169509 d        1812 material, node and element data
 expanding   memory to      171721 d        2150 mat add general damage 0
 expanding   memory to      176891 d        2150 material added airbag porosity leakage 
 expanding   memory to      178442 d        2150 material properties
 expanding   memory to     3104872 d        3861 element data for composite material
 expanding   memory to     4266289 d     9676583 gradient of damage data
 expanding   memory to    10191884 d     9676583 user control for contact interfaces
 expanding   memory to    10320765 d     9676583 temp index array for node sorting
 contracting memory to    10191864 d     9805488 for boundary cond. vectorization
 expanding   memory to    10388286 d     9805488 arbitrary element numbering input
 
 *** Warning 20282 (STR+282)
     warpage angle of element ID= 2142131 is computed as 2.6034E+01 degrees.
 
 *** Warning 20282 (STR+282)
     warpage angle of element ID= 2142132 is computed as 3.1415E+01 degrees.
 
 *** Warning 20282 (STR+282)
     warpage angle of element ID= 2142151 is computed as 2.1592E+01 degrees.
 
 *** Warning 20282 (STR+282)
     warpage angle of element ID= 2142161 is computed as 2.7972E+01 degrees.
 
 *** Warning 20282 (STR+282)
     warpage angle of element ID= 2142206 is computed as 2.6034E+01 degrees.
 
 *** Warning 20282 (STR+282)
     warpage angle of element ID= 2142207 is computed as 3.1415E+01 degrees.
 
 *** Warning 20282 (STR+282)
     warpage angle of element ID= 2142226 is computed as 2.1592E+01 degrees.
 
 *** Warning 20282 (STR+282)
     warpage angle of element ID= 2142236 is computed as 2.7972E+01 degrees.
 
 *** Warning 20282 (STR+282)
     warpage angle of element ID= 3156433 is computed as 2.0932E+01 degrees.
 
 *** Warning 20282 (STR+282)
     warpage angle of element ID= 3156801 is computed as 2.4715E+01 degrees.
 
 *** Warning 20282 (STR+282)
     warpage angle of element ID= 3156802 is computed as 3.5580E+01 degrees.
 
 *** Warning 20282 (STR+282)
     warpage angle of element ID= 3157084 is computed as 4.2371E+01 degrees.
 
 *** Warning 20282 (STR+282)
     warpage angle of element ID= 3157330 is computed as 2.1681E+01 degrees.
 
 *** Warning 20282 (STR+282)
     warpage angle of element ID= 3157331 is computed as 2.5350E+01 degrees.
 
 *** Warning 20282 (STR+282)
     warpage angle of element ID= 3157332 is computed as 3.1360E+01 degrees.
 
 *** Warning 20282 (STR+282)
     warpage angle of element ID= 3157510 is computed as 2.3244E+01 degrees.
 
 *** Warning 20282 (STR+282)
     warpage angle of element ID= 3157966 is computed as 3.1271E+01 degrees.
 
 *** Warning 20282 (STR+282)
     warpage angle of element ID= 3157968 is computed as 3.1958E+01 degrees.
 
 *** Warning 20282 (STR+282)
     warpage angle of element ID= 3157970 is computed as 2.4344E+01 degrees.
 
 *** Warning 20282 (STR+282)
     warpage angle of element ID= 3157972 is computed as 2.1226E+01 degrees.
 
 *** Warning 20282 (STR+282)
     warpage angle of element ID= 3158192 is computed as 6.3746E+01 degrees.
 
 *** Warning 20282 (STR+282)
     warpage angle of element ID= 3158193 is computed as 5.5169E+01 degrees.
 
 *** Warning 20282 (STR+282)
     warpage angle of element ID= 3158194 is computed as 3.7607E+01 degrees.
 
 *** Warning 20282 (STR+282)
     warpage angle of element ID= 3158302 is computed as 2.0892E+01 degrees.
 
 *** Warning 20282 (STR+282)
     warpage angle of element ID= 3158303 is computed as 3.2559E+01 degrees.
 
 *** Warning 20282 (STR+282)
     warpage angle of element ID= 3158981 is computed as 2.0932E+01 degrees.
 
 *** Warning 20282 (STR+282)
     warpage angle of element ID= 3159349 is computed as 2.4715E+01 degrees.
 
 *** Warning 20282 (STR+282)
     warpage angle of element ID= 3159350 is computed as 3.5580E+01 degrees.
 
 *** Warning 20282 (STR+282)
     warpage angle of element ID= 3159632 is computed as 4.2371E+01 degrees.
 
 *** Warning 20282 (STR+282)
     warpage angle of element ID= 3159878 is computed as 2.1681E+01 degrees.
 
 *** Warning 20282 (STR+282)
     warpage angle of element ID= 3159879 is computed as 2.5350E+01 degrees.
 
 *** Warning 20282 (STR+282)
     warpage angle of element ID= 3159880 is computed as 3.1360E+01 degrees.
 
 *** Warning 20282 (STR+282)
     warpage angle of element ID= 3160058 is computed as 2.3244E+01 degrees.
 
 *** Warning 20282 (STR+282)
     warpage angle of element ID= 3160514 is computed as 3.1271E+01 degrees.
 
 *** Warning 20282 (STR+282)
     warpage angle of element ID= 3160516 is computed as 3.1958E+01 degrees.
 
 *** Warning 20282 (STR+282)
     warpage angle of element ID= 3160518 is computed as 2.4344E+01 degrees.
 
 *** Warning 20282 (STR+282)
     warpage angle of element ID= 3160520 is computed as 2.1226E+01 degrees.
 
 *** Warning 20282 (STR+282)
     warpage angle of element ID= 3160740 is computed as 6.3746E+01 degrees.
 
 *** Warning 20282 (STR+282)
     warpage angle of element ID= 3160741 is computed as 5.5169E+01 degrees.
 
 *** Warning 20282 (STR+282)
     warpage angle of element ID= 3160742 is computed as 3.7607E+01 degrees.
 
 *** Warning 20282 (STR+282)
     warpage angle of element ID= 3160850 is computed as 2.0892E+01 degrees.
 
 *** Warning 20282 (STR+282)
     warpage angle of element ID= 3160851 is computed as 3.2559E+01 degrees.
 
 *** Warning 20282 (STR+282)
     warpage angle of element ID= 3173274 is computed as 3.0496E+01 degrees.
 
 *** Warning 20282 (STR+282)
     warpage angle of element ID= 3173276 is computed as 2.0292E+01 degrees.
 
 *** Warning 20282 (STR+282)
     warpage angle of element ID= 3173278 is computed as 5.6385E+01 degrees.
 
 *** Warning 20282 (STR+282)
     warpage angle of element ID= 3173282 is computed as 6.0479E+01 degrees.
 
 *** Warning 20282 (STR+282)
     warpage angle of element ID= 3173285 is computed as 2.6105E+01 degrees.
 
 *** Warning 20282 (STR+282)
     warpage angle of element ID= 3173286 is computed as 3.5206E+01 degrees.
 
 *** Warning 20282 (STR+282)
     warpage angle of element ID= 3173287 is computed as 3.1188E+01 degrees.
 
 *** Warning 20282 (STR+282)
     warpage angle of element ID= 3173293 is computed as 4.5434E+01 degrees.
      
     Message 20282 (STR+282) exceeds 50 times
     Further printing will be suppressed from screen only
 
 *** Warning 20282 (STR+282)
     warpage angle of element ID= 3173295 is computed as 3.6405E+01 degrees.
 
 *** Warning 20282 (STR+282)
     warpage angle of element ID= 3173296 is computed as 2.7449E+01 degrees.
 
 *** Warning 20282 (STR+282)
     warpage angle of element ID= 3173297 is computed as 3.6337E+01 degrees.
 
 *** Warning 20282 (STR+282)
     warpage angle of element ID= 3173298 is computed as 3.3747E+01 degrees.
 
 *** Warning 20282 (STR+282)
     warpage angle of element ID= 3173306 is computed as 3.0496E+01 degrees.
 
 *** Warning 20282 (STR+282)
     warpage angle of element ID= 3173308 is computed as 2.0292E+01 degrees.
 
 *** Warning 20282 (STR+282)
     warpage angle of element ID= 3173310 is computed as 5.6385E+01 degrees.
 
 *** Warning 20282 (STR+282)
     warpage angle of element ID= 3173314 is computed as 6.0479E+01 degrees.
 
 *** Warning 20282 (STR+282)
     warpage angle of element ID= 3173317 is computed as 2.6105E+01 degrees.
 
 *** Warning 20282 (STR+282)
     warpage angle of element ID= 3173318 is computed as 3.5206E+01 degrees.
 
 *** Warning 20282 (STR+282)
     warpage angle of element ID= 3173319 is computed as 3.1188E+01 degrees.
 
 *** Warning 20282 (STR+282)
     warpage angle of element ID= 3173325 is computed as 4.5434E+01 degrees.
 
 *** Warning 20282 (STR+282)
     warpage angle of element ID= 3173327 is computed as 3.6405E+01 degrees.
 
 *** Warning 20282 (STR+282)
     warpage angle of element ID= 3173328 is computed as 2.7449E+01 degrees.
 
 *** Warning 20282 (STR+282)
     warpage angle of element ID= 3173329 is computed as 3.6337E+01 degrees.
 
 *** Warning 20282 (STR+282)
     warpage angle of element ID= 3173330 is computed as 3.3747E+01 degrees.
 
 *** Warning 20282 (STR+282)
     warpage angle of element ID= 3173363 is computed as 3.0572E+01 degrees.
 
 *** Warning 20282 (STR+282)
     warpage angle of element ID= 3173400 is computed as 2.0480E+01 degrees.
 
 *** Warning 20282 (STR+282)
     warpage angle of element ID= 3173402 is computed as 2.8049E+01 degrees.
 
 *** Warning 20282 (STR+282)
     warpage angle of element ID= 3173414 is computed as 2.1423E+01 degrees.
 
 *** Warning 20282 (STR+282)
     warpage angle of element ID= 3173434 is computed as 3.3490E+01 degrees.
 
 *** Warning 20282 (STR+282)
     warpage angle of element ID= 3173436 is computed as 2.6539E+01 degrees.
 
 *** Warning 20282 (STR+282)
     warpage angle of element ID= 3173453 is computed as 3.3749E+01 degrees.
 
 *** Warning 20282 (STR+282)
     warpage angle of element ID= 3173551 is computed as 2.0590E+01 degrees.
 
 *** Warning 20282 (STR+282)
     warpage angle of element ID= 3173563 is computed as 2.5514E+01 degrees.
 
 *** Warning 20282 (STR+282)
     warpage angle of element ID= 3173716 is computed as 2.0823E+01 degrees.
 
 *** Warning 20282 (STR+282)
     warpage angle of element ID= 3173773 is computed as 2.7612E+01 degrees.
 
 *** Warning 20282 (STR+282)
     warpage angle of element ID= 3173810 is computed as 4.6893E+01 degrees.
 
 *** Warning 20282 (STR+282)
     warpage angle of element ID= 3173817 is computed as 5.5017E+01 degrees.
 
 *** Warning 20282 (STR+282)
     warpage angle of element ID= 3173831 is computed as 3.6504E+01 degrees.
 
 *** Warning 20282 (STR+282)
     warpage angle of element ID= 3174083 is computed as 3.0572E+01 degrees.
 
 *** Warning 20282 (STR+282)
     warpage angle of element ID= 3174140 is computed as 2.1423E+01 degrees.
 
 *** Warning 20282 (STR+282)
     warpage angle of element ID= 3174163 is computed as 2.0480E+01 degrees.
 
 *** Warning 20282 (STR+282)
     warpage angle of element ID= 3174164 is computed as 3.1220E+01 degrees.
 
 *** Warning 20282 (STR+282)
     warpage angle of element ID= 3174173 is computed as 2.6539E+01 degrees.
 
 *** Warning 20282 (STR+282)
     warpage angle of element ID= 3174175 is computed as 3.3490E+01 degrees.
 
 *** Warning 20282 (STR+282)
     warpage angle of element ID= 3174255 is computed as 3.3749E+01 degrees.
 
 *** Warning 20282 (STR+282)
     warpage angle of element ID= 3174285 is computed as 2.7612E+01 degrees.
 
 *** Warning 20282 (STR+282)
     warpage angle of element ID= 3174293 is computed as 2.5514E+01 degrees.
 
 *** Warning 20282 (STR+282)
     warpage angle of element ID= 3174435 is computed as 2.3903E+01 degrees.
 
 *** Warning 20282 (STR+282)
     warpage angle of element ID= 3174518 is computed as 2.0590E+01 degrees.
 
 *** Warning 20282 (STR+282)
     warpage angle of element ID= 3174533 is computed as 4.6893E+01 degrees.
 
 *** Warning 20282 (STR+282)
     warpage angle of element ID= 3174541 is computed as 5.5017E+01 degrees.
 
 *** Warning 20282 (STR+282)
     warpage angle of element ID= 3174555 is computed as 3.6504E+01 degrees.
 
 *** Warning 20282 (STR+282)
     warpage angle of element ID= 4106208 is computed as 2.7068E+01 degrees.
 
 *** Warning 20282 (STR+282)
     warpage angle of element ID= 4106216 is computed as 2.0241E+01 degrees.
 
 *** Warning 20282 (STR+282)
     warpage angle of element ID= 4106224 is computed as 5.5854E+01 degrees.
 
 *** Warning 20282 (STR+282)
     warpage angle of element ID= 4106271 is computed as 2.0388E+01 degrees.
 
 *** Warning 20282 (STR+282)
     warpage angle of element ID= 4106275 is computed as 2.7810E+01 degrees.
 
 *** Warning 20282 (STR+282)
     warpage angle of element ID= 4106333 is computed as 3.6894E+01 degrees.
 
 *** Warning 20282 (STR+282)
     warpage angle of element ID= 4106338 is computed as 4.1262E+01 degrees.
 
 *** Warning 20282 (STR+282)
     warpage angle of element ID= 4106340 is computed as 3.4560E+01 degrees.
 
 *** Warning 20282 (STR+282)
     warpage angle of element ID= 4106429 is computed as 2.2637E+01 degrees.
 
 *** Warning 20282 (STR+282)
     warpage angle of element ID= 4106441 is computed as 2.2279E+01 degrees.
 
 *** Warning 20282 (STR+282)
     warpage angle of element ID= 4106483 is computed as 2.2279E+01 degrees.
 
 *** Warning 20282 (STR+282)
     warpage angle of element ID= 4106576 is computed as 5.5854E+01 degrees.
 
 *** Warning 20282 (STR+282)
     warpage angle of element ID= 4106588 is computed as 2.0241E+01 degrees.
 
 *** Warning 20282 (STR+282)
     warpage angle of element ID= 4106593 is computed as 2.7068E+01 degrees.
 
 *** Warning 20282 (STR+282)
     warpage angle of element ID= 4106629 is computed as 2.0388E+01 degrees.
 
 *** Warning 20282 (STR+282)
     warpage angle of element ID= 4106630 is computed as 2.7810E+01 degrees.
 
 *** Warning 20282 (STR+282)
     warpage angle of element ID= 4106695 is computed as 3.6894E+01 degrees.
 
 *** Warning 20282 (STR+282)
     warpage angle of element ID= 4106698 is computed as 4.1262E+01 degrees.
 
 *** Warning 20282 (STR+282)
     warpage angle of element ID= 4106699 is computed as 3.4560E+01 degrees.
 
 *** Warning 20282 (STR+282)
     warpage angle of element ID= 4106803 is computed as 2.2637E+01 degrees.
 
 *** Warning 20282 (STR+282)
     warpage angle of element ID= 6103085 is computed as 5.8422E+01 degrees.
 
 *** Warning 20282 (STR+282)
     warpage angle of element ID= 6103090 is computed as 2.0195E+01 degrees.
 
 *** Warning 20282 (STR+282)
     warpage angle of element ID= 6103100 is computed as 2.5033E+01 degrees.
 
 *** Warning 20282 (STR+282)
     warpage angle of element ID= 6103166 is computed as 2.0651E+01 degrees.
 
 *** Warning 20282 (STR+282)
     warpage angle of element ID= 6103187 is computed as 2.7659E+01 degrees.
 
 *** Warning 20282 (STR+282)
     warpage angle of element ID= 6103188 is computed as 2.1329E+01 degrees.
 
 *** Warning 20282 (STR+282)
     warpage angle of element ID= 6103198 is computed as 4.5690E+01 degrees.
 
 *** Warning 20282 (STR+282)
     warpage angle of element ID= 6103199 is computed as 2.7720E+01 degrees.
 
 *** Warning 20282 (STR+282)
     warpage angle of element ID= 6103212 is computed as 2.8482E+01 degrees.
 
 *** Warning 20282 (STR+282)
     warpage angle of element ID= 6103213 is computed as 5.3357E+01 degrees.
 
 *** Warning 20282 (STR+282)
     warpage angle of element ID= 6103227 is computed as 3.0433E+01 degrees.
 
 *** Warning 20282 (STR+282)
     warpage angle of element ID= 6103234 is computed as 2.3977E+01 degrees.
 
 *** Warning 20282 (STR+282)
     warpage angle of element ID= 6103236 is computed as 2.3052E+01 degrees.
 
 *** Warning 20282 (STR+282)
     warpage angle of element ID= 6103241 is computed as 3.9028E+01 degrees.
 
 *** Warning 20282 (STR+282)
     warpage angle of element ID= 6103245 is computed as 4.5144E+01 degrees.
 
 *** Warning 20282 (STR+282)
     warpage angle of element ID= 6103389 is computed as 2.0555E+01 degrees.
 
 *** Warning 20282 (STR+282)
     warpage angle of element ID= 6103399 is computed as 3.2092E+01 degrees.
 
 *** Warning 20282 (STR+282)
     warpage angle of element ID= 6103410 is computed as 2.5990E+01 degrees.
 
 *** Warning 20282 (STR+282)
     warpage angle of element ID= 6103423 is computed as 2.5278E+01 degrees.
 
 *** Warning 20282 (STR+282)
     warpage angle of element ID= 6103424 is computed as 2.1101E+01 degrees.
 
 *** Warning 20282 (STR+282)
     warpage angle of element ID= 6103445 is computed as 2.8862E+01 degrees.
 
 *** Warning 20282 (STR+282)
     warpage angle of element ID= 6103453 is computed as 3.6622E+01 degrees.
 
 *** Warning 20282 (STR+282)
     warpage angle of element ID= 6103455 is computed as 2.7323E+01 degrees.
 
 *** Warning 20282 (STR+282)
     warpage angle of element ID= 6103516 is computed as 3.5675E+01 degrees.
 
 *** Warning 20282 (STR+282)
     warpage angle of element ID= 6103590 is computed as 2.8702E+01 degrees.
 
 *** Warning 20282 (STR+282)
     warpage angle of element ID= 6103591 is computed as 3.0172E+01 degrees.
 
 *** Warning 20282 (STR+282)
     warpage angle of element ID= 6103618 is computed as 3.1803E+01 degrees.
 
 *** Warning 20282 (STR+282)
     warpage angle of element ID= 6103629 is computed as 2.7346E+01 degrees.
 
 *** Warning 20282 (STR+282)
     warpage angle of element ID= 6103654 is computed as 3.1511E+01 degrees.
 
 *** Warning 20282 (STR+282)
     warpage angle of element ID= 6103661 is computed as 2.2686E+01 degrees.
 
 *** Warning 20282 (STR+282)
     warpage angle of element ID= 6103671 is computed as 2.8580E+01 degrees.
 
 *** Warning 21129 (STR+1129)
     shell element, ID 6103803 violates heuristic shape criterion
     area/(longest diagonal)/(longest diagonal) equals: 6.7231E-02
     which may be too small (< 0.1) to permit a stable calculation.
 
 *** Warning 21129 (STR+1129)
     shell element, ID 6103805 violates heuristic shape criterion
     area/(longest diagonal)/(longest diagonal) equals: 5.4844E-02
     which may be too small (< 0.1) to permit a stable calculation.
 
 *** Warning 21129 (STR+1129)
     shell element, ID 6103806 violates heuristic shape criterion
     area/(longest diagonal)/(longest diagonal) equals: 5.6494E-02
     which may be too small (< 0.1) to permit a stable calculation.
 
 *** Warning 21129 (STR+1129)
     shell element, ID 6103808 violates heuristic shape criterion
     area/(longest diagonal)/(longest diagonal) equals: 7.2799E-02
     which may be too small (< 0.1) to permit a stable calculation.
 
 *** Warning 21129 (STR+1129)
     shell element, ID 6103809 violates heuristic shape criterion
     area/(longest diagonal)/(longest diagonal) equals: 9.5807E-02
     which may be too small (< 0.1) to permit a stable calculation.
 
 *** Warning 20282 (STR+282)
     warpage angle of element ID= 7103085 is computed as 5.8422E+01 degrees.
 
 *** Warning 20282 (STR+282)
     warpage angle of element ID= 7103090 is computed as 2.0195E+01 degrees.
 
 *** Warning 20282 (STR+282)
     warpage angle of element ID= 7103100 is computed as 2.5033E+01 degrees.
 
 *** Warning 20282 (STR+282)
     warpage angle of element ID= 7103166 is computed as 2.0651E+01 degrees.
 
 *** Warning 20282 (STR+282)
     warpage angle of element ID= 7103187 is computed as 2.7659E+01 degrees.
 
 *** Warning 20282 (STR+282)
     warpage angle of element ID= 7103188 is computed as 2.1329E+01 degrees.
 
 *** Warning 20282 (STR+282)
     warpage angle of element ID= 7103198 is computed as 4.5690E+01 degrees.
 
 *** Warning 20282 (STR+282)
     warpage angle of element ID= 7103199 is computed as 2.7720E+01 degrees.
 
 *** Warning 20282 (STR+282)
     warpage angle of element ID= 7103212 is computed as 2.8482E+01 degrees.
 
 *** Warning 20282 (STR+282)
     warpage angle of element ID= 7103213 is computed as 5.3357E+01 degrees.
 
 *** Warning 20282 (STR+282)
     warpage angle of element ID= 7103227 is computed as 3.0433E+01 degrees.
 
 *** Warning 20282 (STR+282)
     warpage angle of element ID= 7103234 is computed as 2.3977E+01 degrees.
 
 *** Warning 20282 (STR+282)
     warpage angle of element ID= 7103236 is computed as 2.3052E+01 degrees.
 
 *** Warning 20282 (STR+282)
     warpage angle of element ID= 7103241 is computed as 3.9028E+01 degrees.
 
 *** Warning 20282 (STR+282)
     warpage angle of element ID= 7103245 is computed as 4.5144E+01 degrees.
 
 *** Warning 20282 (STR+282)
     warpage angle of element ID= 7103389 is computed as 2.0555E+01 degrees.
 
 *** Warning 20282 (STR+282)
     warpage angle of element ID= 7103399 is computed as 3.2092E+01 degrees.
 
 *** Warning 20282 (STR+282)
     warpage angle of element ID= 7103410 is computed as 2.5990E+01 degrees.
 
 *** Warning 20282 (STR+282)
     warpage angle of element ID= 7103423 is computed as 2.5278E+01 degrees.
 
 *** Warning 20282 (STR+282)
     warpage angle of element ID= 7103424 is computed as 2.1101E+01 degrees.
 
 *** Warning 20282 (STR+282)
     warpage angle of element ID= 7103445 is computed as 2.8862E+01 degrees.
 
 *** Warning 20282 (STR+282)
     warpage angle of element ID= 7103453 is computed as 3.6622E+01 degrees.
 
 *** Warning 20282 (STR+282)
     warpage angle of element ID= 7103455 is computed as 2.7323E+01 degrees.
 
 *** Warning 20282 (STR+282)
     warpage angle of element ID= 7103516 is computed as 3.5675E+01 degrees.
 
 *** Warning 20282 (STR+282)
     warpage angle of element ID= 7103590 is computed as 2.8702E+01 degrees.
 
 *** Warning 20282 (STR+282)
     warpage angle of element ID= 7103591 is computed as 3.0172E+01 degrees.
 
 *** Warning 20282 (STR+282)
     warpage angle of element ID= 7103618 is computed as 3.1803E+01 degrees.
 
 *** Warning 20282 (STR+282)
     warpage angle of element ID= 7103629 is computed as 2.7346E+01 degrees.
 
 *** Warning 20282 (STR+282)
     warpage angle of element ID= 7103654 is computed as 3.1511E+01 degrees.
 
 *** Warning 20282 (STR+282)
     warpage angle of element ID= 7103661 is computed as 2.2686E+01 degrees.
 
 *** Warning 20282 (STR+282)
     warpage angle of element ID= 7103671 is computed as 2.8580E+01 degrees.
 
 *** Warning 21129 (STR+1129)
     shell element, ID 7103787 violates heuristic shape criterion
     area/(longest diagonal)/(longest diagonal) equals: 9.7290E-02
     which may be too small (< 0.1) to permit a stable calculation.
 
 *** Warning 20282 (STR+282)
     warpage angle of element ID= 8103277 is computed as 6.4203E+01 degrees.
 
 *** Warning 20282 (STR+282)
     warpage angle of element ID= 8103358 is computed as 2.7060E+01 degrees.
 
 *** Warning 20282 (STR+282)
     warpage angle of element ID= 8103535 is computed as 2.3989E+01 degrees.
 
 *** Warning 20282 (STR+282)
     warpage angle of element ID= 8103706 is computed as 2.2277E+01 degrees.
 
 *** Warning 20282 (STR+282)
     warpage angle of element ID= 8103721 is computed as 2.2955E+01 degrees.
 
 *** Warning 20282 (STR+282)
     warpage angle of element ID= 8103819 is computed as 2.6595E+01 degrees.
 
 *** Warning 20282 (STR+282)
     warpage angle of element ID= 8103836 is computed as 2.4083E+01 degrees.
 
 *** Warning 20282 (STR+282)
     warpage angle of element ID= 8103871 is computed as 2.9410E+01 degrees.
 
 *** Warning 20282 (STR+282)
     warpage angle of element ID= 8103875 is computed as 2.3222E+01 degrees.
 
 *** Warning 20282 (STR+282)
     warpage angle of element ID= 8103885 is computed as 2.2198E+01 degrees.
 
 *** Warning 20282 (STR+282)
     warpage angle of element ID= 8103903 is computed as 4.9192E+01 degrees.
 
 *** Warning 20282 (STR+282)
     warpage angle of element ID= 8103905 is computed as 2.8562E+01 degrees.
 
 *** Warning 20282 (STR+282)
     warpage angle of element ID= 8103916 is computed as 2.3033E+01 degrees.
 
 *** Warning 20282 (STR+282)
     warpage angle of element ID= 8103946 is computed as 2.4406E+01 degrees.
 
 *** Warning 20282 (STR+282)
     warpage angle of element ID= 8103950 is computed as 2.4191E+01 degrees.
 
 *** Warning 20282 (STR+282)
     warpage angle of element ID= 8103952 is computed as 3.5622E+01 degrees.
 
 *** Warning 20282 (STR+282)
     warpage angle of element ID= 8103953 is computed as 2.5491E+01 degrees.
 
 *** Warning 20282 (STR+282)
     warpage angle of element ID= 8103958 is computed as 3.0160E+01 degrees.
 
 *** Warning 20282 (STR+282)
     warpage angle of element ID= 8103972 is computed as 2.7614E+01 degrees.
 
 *** Warning 20282 (STR+282)
     warpage angle of element ID= 8103981 is computed as 4.0585E+01 degrees.
 
 *** Warning 20282 (STR+282)
     warpage angle of element ID= 8103983 is computed as 2.7679E+01 degrees.
 
 *** Warning 20282 (STR+282)
     warpage angle of element ID= 8103986 is computed as 3.0823E+01 degrees.
 
 *** Warning 20282 (STR+282)
     warpage angle of element ID= 8103988 is computed as 2.1908E+01 degrees.
 
 *** Warning 20282 (STR+282)
     warpage angle of element ID= 8103996 is computed as 2.9448E+01 degrees.
 
 *** Warning 20282 (STR+282)
     warpage angle of element ID= 8103997 is computed as 2.3083E+01 degrees.
 
 *** Warning 20282 (STR+282)
     warpage angle of element ID= 8104008 is computed as 3.3907E+01 degrees.
 
 *** Warning 20282 (STR+282)
     warpage angle of element ID= 9103277 is computed as 6.4203E+01 degrees.
 
 *** Warning 20282 (STR+282)
     warpage angle of element ID= 9103358 is computed as 2.7060E+01 degrees.
 
 *** Warning 20282 (STR+282)
     warpage angle of element ID= 9103535 is computed as 2.3989E+01 degrees.
 
 *** Warning 20282 (STR+282)
     warpage angle of element ID= 9103706 is computed as 2.2277E+01 degrees.
 
 *** Warning 20282 (STR+282)
     warpage angle of element ID= 9103721 is computed as 2.2955E+01 degrees.
 
 *** Warning 20282 (STR+282)
     warpage angle of element ID= 9103819 is computed as 2.6595E+01 degrees.
 
 *** Warning 20282 (STR+282)
     warpage angle of element ID= 9103836 is computed as 2.4083E+01 degrees.
 
 *** Warning 20282 (STR+282)
     warpage angle of element ID= 9103871 is computed as 2.9410E+01 degrees.
 
 *** Warning 20282 (STR+282)
     warpage angle of element ID= 9103875 is computed as 2.3222E+01 degrees.
 
 *** Warning 20282 (STR+282)
     warpage angle of element ID= 9103885 is computed as 2.2198E+01 degrees.
 
 *** Warning 20282 (STR+282)
     warpage angle of element ID= 9103903 is computed as 4.9192E+01 degrees.
 
 *** Warning 20282 (STR+282)
     warpage angle of element ID= 9103905 is computed as 2.8562E+01 degrees.
 
 *** Warning 20282 (STR+282)
     warpage angle of element ID= 9103916 is computed as 2.3033E+01 degrees.
 
 *** Warning 20282 (STR+282)
     warpage angle of element ID= 9103946 is computed as 2.4406E+01 degrees.
 
 *** Warning 20282 (STR+282)
     warpage angle of element ID= 9103950 is computed as 2.4191E+01 degrees.
 
 *** Warning 20282 (STR+282)
     warpage angle of element ID= 9103952 is computed as 3.5622E+01 degrees.
 
 *** Warning 20282 (STR+282)
     warpage angle of element ID= 9103953 is computed as 2.5491E+01 degrees.
 
 *** Warning 20282 (STR+282)
     warpage angle of element ID= 9103958 is computed as 3.0160E+01 degrees.
 
 *** Warning 20282 (STR+282)
     warpage angle of element ID= 9103972 is computed as 2.7614E+01 degrees.
 
 *** Warning 20282 (STR+282)
     warpage angle of element ID= 9103981 is computed as 4.0585E+01 degrees.
 
 *** Warning 20282 (STR+282)
     warpage angle of element ID= 9103983 is computed as 2.7679E+01 degrees.
 
 *** Warning 20282 (STR+282)
     warpage angle of element ID= 9103986 is computed as 3.0823E+01 degrees.
 
 *** Warning 20282 (STR+282)
     warpage angle of element ID= 9103988 is computed as 2.1908E+01 degrees.
 
 *** Warning 20282 (STR+282)
     warpage angle of element ID= 9103996 is computed as 2.9448E+01 degrees.
 
 *** Warning 20282 (STR+282)
     warpage angle of element ID= 9103997 is computed as 2.3083E+01 degrees.
 
 *** Warning 20282 (STR+282)
     warpage angle of element ID= 9104008 is computed as 3.3907E+01 degrees.
 
 *** Warning 20289 (STR+289)
     Number of elements exceed warpage angle = 228
       min warpage angle = 2.0195E+01
       max warpage angle = 6.4203E+01
 contracting memory to    10191864 d    10304265 thick shell int. pt. strain
 expanding   memory to    10191888 d    10305299 spc cards
 expanding   memory to    15967255 d    10563101 initial volume flag
 expanding   memory to    15967592 d    10563101 process element material data
 expanding   memory to    15970433 d    10562584 load curve data
 expanding   memory to    15971503 d    10562838 time history data
 expanding   memory to    15972585 d    10562872 time history data
 expanding   memory to    15973891 d    10563058 time history data
 expanding   memory to    16045234 d    10562752 user_define_loading_set
 expanding   memory to    16045740 d    10562752 regularize time history data
 
 *** Warning 21329 (STR+1329)
     The discretization of the following load curves
     has resulted in differences in value that exceed 10.00
     percent of the median value of the load curve
      
     Curve ID 2500014 has discretization error of
           13.712353 which is 298. percent of its median
     Curve ID 2500015 has discretization error of
            2.437744 which is 722. percent of its median
     Curve ID 2500016 has discretization error of
           11.274586 which is 298. percent of its median
     Curve ID 2500024 has discretization error of
           53.035553 which is 298. percent of its median
     Curve ID 2500025 has discretization error of
            1.066512 which is 298. percent of its median
     Curve ID 2500026 has discretization error of
            0.045708 which is 298. percent of its median
     Curve ID 2500031 has discretization error of
            2.860214 which is 309. percent of its median
     Curve ID 2500032 has discretization error of
            3.469707 which is 333. percent of its median
     Curve ID 2500033 has discretization error of
            9.643616 which is 277. percent of its median
     Curve ID 2500034 has discretization error of
           10.665113 which is 298. percent of its median
     Curve ID 2500035 has discretization error of
          178.130005 which is 0.297E+04 percent of its median
     Curve ID 2500036 has discretization error of
          211.778687 which is 298. percent of its median
     Curve ID 2500044 has discretization error of
           16.759521 which is 298. percent of its median
     Curve ID 2500045 has discretization error of
          178.130005 which is 0.297E+04 percent of its median
     Curve ID 2500046 has discretization error of
          211.778687 which is 298. percent of its median
     Curve ID 2500054 has discretization error of
           12.188648 which is 298. percent of its median
     Curve ID 2500055 has discretization error of
          156.446899 which is 0.261E+04 percent of its median
     Curve ID 2500056 has discretization error of
           36.566071 which is 298. percent of its median
     Curve ID 2500064 has discretization error of
           24.377296 which is 298. percent of its median
     Curve ID 2500065 has discretization error of
          156.446899 which is 0.261E+04 percent of its median
     Curve ID 2500066 has discretization error of
           89.891571 which is 298. percent of its median
     Curve ID 2500074 has discretization error of
           50.278458 which is 298. percent of its median
     Curve ID 2500075 has discretization error of
          237.600342 which is 0.396E+04 percent of its median
     Curve ID 2500076 has discretization error of
          470.788208 which is 298. percent of its median
     Curve ID 7500026 has discretization error of
           98.941406 which is 98.9 percent of its median
     Curve ID 6500026 has discretization error of
           12.690857 which is 12.7 percent of its median
 expanding   memory to    16045744 d    10562756 *DEFINE_ELEMENT_DEATH
 contracting memory to    16045744 d    10562756 rigidwall definitions
 expanding   memory to    16174703 d    10562756 nodal load data
 expanding   memory to    16175825 d    10562756 velocity b.c
 expanding   memory to    16313685 d    10562756 nodal constraint sets
 expanding   memory to    17694268 d    10562756 contact interfaces
 expanding   memory to    17953070 d    10562756 implicit contact 1
 expanding   memory to    18938372 d    10562756 implicit contact 2
 contracting memory to    18243822 d    10580880 contact segment data 1
 contracting memory to    18156328 d    10580880 contact segment data 2
 expanding   memory to    20153619 d    10580880 contact segment data 3
 contracting memory to    19001865 d    13065528 contact definition
 expanding   memory to    19575603 d    13065528 rigid body
 expanding   memory to    20408429 d    13960893 contact friction
 expanding   memory to    20850311 d    13960893 joints
 expanding   memory to    20851103 d    13960893 *PART_AVERAGED data
 expanding   memory to    20851912 d    13960893 *PART_AVERAGED list data
 expanding   memory to    20851942 d    14431941 discrete element
 expanding   memory to    20957800 d    14431941 seatbelts
 expanding   memory to    20957848 d    14431941 accelerometers
 expanding   memory to    20957948 d    14431941 rigid bodies for disp. termination
 contracting memory to    20957948 d    14818644 transformation to move nodes
 expanding   memory to    21215750 d    14818695 interfac for file
 contracting memory to    21087366 d    14818695 thermal expansion 0
 expanding   memory to    21087883 d    14818695 mat add cohesive 0
 expanding   memory to    21088219 d    14818695 sensor_control for curve
 expanding   memory to    21088736 d    14818695 flexible body 2
 expanding   memory to    21089361 d    14818695 implicit joints
 expanding   memory to    21089365 d    14818695 minimum contact gap for auto switching
 expanding   memory to    22296997 d    14818699 initialization phase
 *** Warning Solid element #     1503522 has been
             switched from type   1 to 115
 *** Warning Solid element #     1503523 has been
             switched from type   1 to 115
 *** Warning Solid element #     1503524 has been
             switched from type   1 to 115
 *** Warning Solid element #     1503783 has been
             switched from type   1 to 115
 *** Warning Solid element #     1503784 has been
             switched from type   1 to 115
 *** Warning Solid element #     1503785 has been
             switched from type   1 to 115
 *** Warning Solid element #     1504356 has been
             switched from type   1 to 115
 *** Warning Solid element #     1504357 has been
             switched from type   1 to 115
 *** Warning Solid element #     1504358 has been
             switched from type   1 to 115
 *** Warning Solid element #     1504458 has been
             switched from type   1 to 115
 *** Warning Solid element #     1504459 has been
             switched from type   1 to 115
 *** Warning Solid element #     1504460 has been
             switched from type   1 to 115
 *** Warning Solid element #     1504500 has been
             switched from type   1 to 115
 *** Warning Solid element #     1504501 has been
             switched from type   1 to 115
 *** Warning Solid element #     1504502 has been
             switched from type   1 to 115
 *** Warning Solid element #     1504572 has been
             switched from type   1 to 115
 *** Warning Solid element #     1504573 has been
             switched from type   1 to 115
 *** Warning Solid element #     1504574 has been
             switched from type   1 to 115
 *** Warning Solid element #     1504692 has been
             switched from type   1 to 115
 *** Warning Solid element #     1504693 has been
             switched from type   1 to 115
 *** Warning Solid element #     1504694 has been
             switched from type   1 to 115
 *** Warning Solid element #     1504734 has been
             switched from type   1 to 115
 *** Warning Solid element #     1504735 has been
             switched from type   1 to 115
 *** Warning Solid element #     1504736 has been
             switched from type   1 to 115
 *** Warning Solid element #     1504764 has been
             switched from type   1 to 115
 *** Warning Solid element #     1504765 has been
             switched from type   1 to 115
 *** Warning Solid element #     1504766 has been
             switched from type   1 to 115
 *** Warning Solid element #     1504773 has been
             switched from type   1 to 115
 *** Warning Solid element #     1504774 has been
             switched from type   1 to 115
 *** Warning Solid element #     1504775 has been
             switched from type   1 to 115
 *** Warning Solid element #     1504776 has been
             switched from type   1 to 115
 *** Warning Solid element #     1504777 has been
             switched from type   1 to 115
 *** Warning Solid element #     1504778 has been
             switched from type   1 to 115
 *** Warning Solid element #     1504785 has been
             switched from type   1 to 115
 *** Warning Solid element #     1504786 has been
             switched from type   1 to 115
 *** Warning Solid element #     1504787 has been
             switched from type   1 to 115
 *** Warning Solid element #     1504905 has been
             switched from type   1 to 115
 *** Warning Solid element #     1504906 has been
             switched from type   1 to 115
 *** Warning Solid element #     1504907 has been
             switched from type   1 to 115
 *** Warning Solid element #     1504917 has been
             switched from type   1 to 115
 *** Warning Solid element #     1504918 has been
             switched from type   1 to 115
 *** Warning Solid element #     1504919 has been
             switched from type   1 to 115
 *** Warning Solid element #     1504923 has been
             switched from type   1 to 115
 *** Warning Solid element #     1504924 has been
             switched from type   1 to 115
 *** Warning Solid element #     1504925 has been
             switched from type   1 to 115
 *** Warning Solid element #     1504944 has been
             switched from type   1 to 115
 *** Warning Solid element #     1504945 has been
             switched from type   1 to 115
 *** Warning Solid element #     1504946 has been
             switched from type   1 to 115
 *** Warning Solid element #     1504953 has been
             switched from type   1 to 115
 *** Warning Solid element #     1504954 has been
             switched from type   1 to 115
 *** Warning Solid element #     1504955 has been
             switched from type   1 to 115
 *** Warning Solid element #     1504965 has been
             switched from type   1 to 115
 *** Warning Solid element #     1504966 has been
             switched from type   1 to 115
 *** Warning Solid element #     1504967 has been
             switched from type   1 to 115
 *** Warning Solid element #     1504977 has been
             switched from type   1 to 115
 *** Warning Solid element #     1504978 has been
             switched from type   1 to 115
 *** Warning Solid element #     1504979 has been
             switched from type   1 to 115
 *** Warning Solid element #     1504998 has been
             switched from type   1 to 115
 *** Warning Solid element #     1504999 has been
             switched from type   1 to 115
 *** Warning Solid element #     1505000 has been
             switched from type   1 to 115
 *** Warning Solid element #     1505004 has been
             switched from type   1 to 115
 *** Warning Solid element #     1505005 has been
             switched from type   1 to 115
 *** Warning Solid element #     1505006 has been
             switched from type   1 to 115
 *** Warning Solid element #     1505124 has been
             switched from type   1 to 115
 *** Warning Solid element #     1505125 has been
             switched from type   1 to 115
 *** Warning Solid element #     1505126 has been
             switched from type   1 to 115
 *** Warning Solid element #     1505424 has been
             switched from type   1 to 115
 *** Warning Solid element #     1505425 has been
             switched from type   1 to 115
 *** Warning Solid element #     1505426 has been
             switched from type   1 to 115
 *** Warning Solid element #     1505451 has been
             switched from type   1 to 115
 *** Warning Solid element #     1505452 has been
             switched from type   1 to 115
 *** Warning Solid element #     1505453 has been
             switched from type   1 to 115
 *** Warning Solid element #     1505454 has been
             switched from type   1 to 115
 *** Warning Solid element #     1505455 has been
             switched from type   1 to 115
 *** Warning Solid element #     1505456 has been
             switched from type   1 to 115
 *** Warning Solid element #     1505457 has been
             switched from type   1 to 115
 *** Warning Solid element #     1505458 has been
             switched from type   1 to 115
 *** Warning Solid element #     1505459 has been
             switched from type   1 to 115
 *** Warning Solid element #     1505463 has been
             switched from type   1 to 115
 *** Warning Solid element #     1505464 has been
             switched from type   1 to 115
 *** Warning Solid element #     1505465 has been
             switched from type   1 to 115
 *** Warning Solid element #     1505466 has been
             switched from type   1 to 115
 *** Warning Solid element #     1505467 has been
             switched from type   1 to 115
 *** Warning Solid element #     1505468 has been
             switched from type   1 to 115
 *** Warning Solid element #     1505469 has been
             switched from type   1 to 115
 *** Warning Solid element #     1505470 has been
             switched from type   1 to 115
 *** Warning Solid element #     1505471 has been
             switched from type   1 to 115
 *** Warning Solid element #     1505472 has been
             switched from type   1 to 115
 *** Warning Solid element #     1505473 has been
             switched from type   1 to 115
 *** Warning Solid element #     1505474 has been
             switched from type   1 to 115
 *** Warning Solid element #     1508997 has been
             switched from type   1 to 115
 *** Warning Solid element #     1508998 has been
             switched from type   1 to 115
 *** Warning Solid element #     1508999 has been
             switched from type   1 to 115
 *** Warning Solid element #     1509258 has been
             switched from type   1 to 115
 *** Warning Solid element #     1509259 has been
             switched from type   1 to 115
 *** Warning Solid element #     1509260 has been
             switched from type   1 to 115
 *** Warning Solid element #     1509831 has been
             switched from type   1 to 115
 *** Warning Solid element #     1509832 has been
             switched from type   1 to 115
 *** Warning Solid element #     1509833 has been
             switched from type   1 to 115
 *** Warning Solid element #     1509933 has been
             switched from type   1 to 115
 *** Warning Solid element #     1509934 has been
             switched from type   1 to 115
 *** Warning Solid element #     1509935 has been
             switched from type   1 to 115
 *** Warning Solid element #     1509975 has been
             switched from type   1 to 115
 *** Warning Solid element #     1509976 has been
             switched from type   1 to 115
 *** Warning Solid element #     1509977 has been
             switched from type   1 to 115
 *** Warning Solid element #     1510047 has been
             switched from type   1 to 115
 *** Warning Solid element #     1510048 has been
             switched from type   1 to 115
 *** Warning Solid element #     1510049 has been
             switched from type   1 to 115
 *** Warning Solid element #     1510167 has been
             switched from type   1 to 115
 *** Warning Solid element #     1510168 has been
             switched from type   1 to 115
 *** Warning Solid element #     1510169 has been
             switched from type   1 to 115
 *** Warning Solid element #     1510209 has been
             switched from type   1 to 115
 *** Warning Solid element #     1510210 has been
             switched from type   1 to 115
 *** Warning Solid element #     1510211 has been
             switched from type   1 to 115
 *** Warning Solid element #     1510239 has been
             switched from type   1 to 115
 *** Warning Solid element #     1510240 has been
             switched from type   1 to 115
 *** Warning Solid element #     1510241 has been
             switched from type   1 to 115
 *** Warning Solid element #     1510248 has been
             switched from type   1 to 115
 *** Warning Solid element #     1510249 has been
             switched from type   1 to 115
 *** Warning Solid element #     1510250 has been
             switched from type   1 to 115
 *** Warning Solid element #     1510251 has been
             switched from type   1 to 115
 *** Warning Solid element #     1510252 has been
             switched from type   1 to 115
 *** Warning Solid element #     1510253 has been
             switched from type   1 to 115
 *** Warning Solid element #     1510260 has been
             switched from type   1 to 115
 *** Warning Solid element #     1510261 has been
             switched from type   1 to 115
 *** Warning Solid element #     1510262 has been
             switched from type   1 to 115
 *** Warning Solid element #     1510380 has been
             switched from type   1 to 115
 *** Warning Solid element #     1510381 has been
             switched from type   1 to 115
 *** Warning Solid element #     1510382 has been
             switched from type   1 to 115
 *** Warning Solid element #     1510392 has been
             switched from type   1 to 115
 *** Warning Solid element #     1510393 has been
             switched from type   1 to 115
 *** Warning Solid element #     1510394 has been
             switched from type   1 to 115
 *** Warning Solid element #     1510398 has been
             switched from type   1 to 115
 *** Warning Solid element #     1510399 has been
             switched from type   1 to 115
 *** Warning Solid element #     1510400 has been
             switched from type   1 to 115
 *** Warning Solid element #     1510419 has been
             switched from type   1 to 115
 *** Warning Solid element #     1510420 has been
             switched from type   1 to 115
 *** Warning Solid element #     1510421 has been
             switched from type   1 to 115
 *** Warning Solid element #     1510428 has been
             switched from type   1 to 115
 *** Warning Solid element #     1510429 has been
             switched from type   1 to 115
 *** Warning Solid element #     1510430 has been
             switched from type   1 to 115
 *** Warning Solid element #     1510440 has been
             switched from type   1 to 115
 *** Warning Solid element #     1510441 has been
             switched from type   1 to 115
 *** Warning Solid element #     1510442 has been
             switched from type   1 to 115
 *** Warning Solid element #     1510452 has been
             switched from type   1 to 115
 *** Warning Solid element #     1510453 has been
             switched from type   1 to 115
 *** Warning Solid element #     1510454 has been
             switched from type   1 to 115
 *** Warning Solid element #     1510473 has been
             switched from type   1 to 115
 *** Warning Solid element #     1510474 has been
             switched from type   1 to 115
 *** Warning Solid element #     1510475 has been
             switched from type   1 to 115
 *** Warning Solid element #     1510479 has been
             switched from type   1 to 115
 *** Warning Solid element #     1510480 has been
             switched from type   1 to 115
 *** Warning Solid element #     1510481 has been
             switched from type   1 to 115
 *** Warning Solid element #     1510599 has been
             switched from type   1 to 115
 *** Warning Solid element #     1510600 has been
             switched from type   1 to 115
 *** Warning Solid element #     1510601 has been
             switched from type   1 to 115
 *** Warning Solid element #     1510899 has been
             switched from type   1 to 115
 *** Warning Solid element #     1510900 has been
             switched from type   1 to 115
 *** Warning Solid element #     1510901 has been
             switched from type   1 to 115
 *** Warning Solid element #     1510926 has been
             switched from type   1 to 115
 *** Warning Solid element #     1510927 has been
             switched from type   1 to 115
 *** Warning Solid element #     1510928 has been
             switched from type   1 to 115
 *** Warning Solid element #     1510929 has been
             switched from type   1 to 115
 *** Warning Solid element #     1510930 has been
             switched from type   1 to 115
 *** Warning Solid element #     1510931 has been
             switched from type   1 to 115
 *** Warning Solid element #     1510932 has been
             switched from type   1 to 115
 *** Warning Solid element #     1510933 has been
             switched from type   1 to 115
 *** Warning Solid element #     1510934 has been
             switched from type   1 to 115
 *** Warning Solid element #     1510938 has been
             switched from type   1 to 115
 *** Warning Solid element #     1510939 has been
             switched from type   1 to 115
 *** Warning Solid element #     1510940 has been
             switched from type   1 to 115
 *** Warning Solid element #     1510941 has been
             switched from type   1 to 115
 *** Warning Solid element #     1510942 has been
             switched from type   1 to 115
 *** Warning Solid element #     1510943 has been
             switched from type   1 to 115
 *** Warning Solid element #     1510944 has been
             switched from type   1 to 115
 *** Warning Solid element #     1510945 has been
             switched from type   1 to 115
 *** Warning Solid element #     1510946 has been
             switched from type   1 to 115
 *** Warning Solid element #     1510947 has been
             switched from type   1 to 115
 *** Warning Solid element #     1510948 has been
             switched from type   1 to 115
 *** Warning Solid element #     1510949 has been
             switched from type   1 to 115
 *** Warning Solid element #     2561444 has been
             switched from type   1 to 115
 *** Warning Solid element #     2561445 has been
             switched from type   1 to 115
 *** Warning Solid element #     2561446 has been
             switched from type   1 to 115
 *** Warning Solid element #     2561447 has been
             switched from type   1 to 115
 *** Warning Solid element #     2561448 has been
             switched from type   1 to 115
 *** Warning Solid element #     2561449 has been
             switched from type   1 to 115
 *** Warning Solid element #     2561450 has been
             switched from type   1 to 115
 *** Warning Solid element #     2561451 has been
             switched from type   1 to 115
 *** Warning Solid element #     2561452 has been
             switched from type   1 to 115
 *** Warning Solid element #     2561453 has been
             switched from type   1 to 115
 *** Warning Solid element #     2561454 has been
             switched from type   1 to 115
 *** Warning Solid element #     2561455 has been
             switched from type   1 to 115
 *** Warning Solid element #     2561456 has been
             switched from type   1 to 115
 *** Warning Solid element #     2561457 has been
             switched from type   1 to 115
 *** Warning Solid element #     2561752 has been
             switched from type   1 to 115
 *** Warning Solid element #     2561753 has been
             switched from type   1 to 115
 *** Warning Solid element #     2561754 has been
             switched from type   1 to 115
 *** Warning Solid element #     2561755 has been
             switched from type   1 to 115
 *** Warning Solid element #     2561756 has been
             switched from type   1 to 115
 *** Warning Solid element #     2561757 has been
             switched from type   1 to 115
 *** Warning Solid element #     2561758 has been
             switched from type   1 to 115
 *** Warning Solid element #     2562218 has been
             switched from type   1 to 115
 *** Warning Solid element #     2562219 has been
             switched from type   1 to 115
 *** Warning Solid element #     2564882 has been
             switched from type   1 to 115
 *** Warning Solid element #     2564883 has been
             switched from type   1 to 115
 *** Warning Solid element #     2564884 has been
             switched from type   1 to 115
 *** Warning Solid element #     2564885 has been
             switched from type   1 to 115
 *** Warning Solid element #     2564886 has been
             switched from type   1 to 115
 *** Warning Solid element #     2564887 has been
             switched from type   1 to 115
 *** Warning Solid element #     2564888 has been
             switched from type   1 to 115
 *** Warning Solid element #     2564889 has been
             switched from type   1 to 115
 *** Warning Solid element #     2564890 has been
             switched from type   1 to 115
 *** Warning Solid element #     2564891 has been
             switched from type   1 to 115
 *** Warning Solid element #     2564892 has been
             switched from type   1 to 115
 *** Warning Solid element #     2564893 has been
             switched from type   1 to 115
 *** Warning Solid element #     2564894 has been
             switched from type   1 to 115
 *** Warning Solid element #     2564895 has been
             switched from type   1 to 115
 *** Warning Solid element #     2565190 has been
             switched from type   1 to 115
 *** Warning Solid element #     2565191 has been
             switched from type   1 to 115
 *** Warning Solid element #     2565192 has been
             switched from type   1 to 115
 *** Warning Solid element #     2565193 has been
             switched from type   1 to 115
 *** Warning Solid element #     2565194 has been
             switched from type   1 to 115
 *** Warning Solid element #     2565195 has been
             switched from type   1 to 115
 *** Warning Solid element #     2565196 has been
             switched from type   1 to 115
 *** Warning Solid element #     2565656 has been
             switched from type   1 to 115
 *** Warning Solid element #     2565657 has been
             switched from type   1 to 115
 
 *** Warning 30128 (INI+128)
     Massless nodes
     The following massless nodes were found
           1      100000      100001      100002      130000     1900001
     1900002     1900003     1900011     1900012     1900013     1900021
     1900022     1900023     2500012     2500013     2500022     2500023
     2500032     2500033     2500042     2500043     2500052     2500053
     2500062     2500063     2500072     2500073     2500082     2500083
     3500201     3500202     3500203     3500204     3500205     3500206
     3500207     3500208     3500209     3500210     3500211     3500212
     3500213     3500214     3500215     3500216     3500217     3500301
     3500302     3500303     3500304     3500305     3500306     3500307
     3500308     3500309     3500310     3500311     3500312     3500313
     3500314     3500315     3500316     3500317     3500501     3500502
     3500503     3500504     3500505     3500506     3500507     3500508
     3500509     3500510     3500511     3500512     3500601     3500602
     3500603     3500604     3500605     3500606     3500607     3500608
     3500609     3500610     3500611     3500612     3500701     3500702
     3500703     3500704     3500705     3500706     3500707     3500708
     3500709     3500710     3500711     3500712     3500801     3500802
     3500803     3500804     3500805     3500806     3500807     3500808
     3500809     3500810     3500811     3500812     3501501     3501502
     3501503     3501504     3501505     3501506     3501507     3501508
     3501509     3501510     3501511     3501512     3501601     3501602
     3501603     3501604     3501605     3501606     3501607     3501608
     3501609     3501610     3501611     3501612     3501701     3501702
     3501703     3501704     3501705     3501706     3501707     3501708
     3501709     3501710     3501711     3501712     3501801     3501802
     3501803     3501804     3501805     3501806     3501807     3501808
     3501809     3501810     3501811     3501812     6500013     6500014
     6500015     6500023     6500024     6500033     6500053     6500054
     7500013     7500014     7500015     7500023     7500024     7500033
     7500053     7500054     8500013     8500023     8500024     9500013
     9500023     9500024
 
 *** Warning 30131 (INI+131)
     total number of massless nodes = 182

 total nodal rigid body mass= 2.1452112E-01

     slave surface of interface   =   2000000
     type                         =        26
     surface timestep             = 1.041E-03
     controlling slave node ID    =   1004493
     part ID of slave node        =   1002001
     current minimum time step    = 1.041E-03

     slave surface of interface   =   2000003
     type                         =        26
     surface timestep             = 1.487E-01
     controlling slave node ID    =   1018226
     part ID of slave node        =   1009001
     current minimum time step    = 1.041E-03

     slave surface of interface   =      1000
     type                         =       a 3
     surface timestep             = 1.327E-01
     controlling slave node ID    =   8007820
     part ID of slave node        =   8009003
     current minimum time step    = 1.041E-03

     master surface of interface  =      1000
     type                         =       a 3
     surface timestep             = 1.261E-03
     controlling master node ID   =       562
     part ID of master node       =     20000
     current minimum time step    = 1.041E-03

     slave surface of interface   =      2000
     type                         =       a 3
     surface timestep             = 1.945E-03
     controlling slave node ID    =   3024056
     part ID of slave node        =   3002300
     current minimum time step    = 1.041E-03

     master surface of interface  =      2000
     type                         =       a 3
     surface timestep             = 9.226E-03
     controlling master node ID   =    120594
     part ID of master node       =    120003
     current minimum time step    = 1.041E-03

 The LS-DYNA time step size should not exceed     1.041E-03
 to avoid contact instabilities.  If the step size is
 bigger then scale the penalty of the offending surface.

 S t o r a g e   a l l o c a t i o n   

 Memory required to begin solution      :      23M
 Additional dynamically allocated memory:      15M
                                   Total:      38M
 
 *** Warning 40565 (SOL+565)
     Initialization
     contact interface #                    =     2000000
     penetrating node #                     =     2034420
     segment #                              =       32297
     penetration                            = -4.0893E-02
     remaining distance to shell midsurface =  8.1513E-01
     s,t                                    = -3.1586E-02 -9.5345E-01
     penetrated segment nodes:
     2032881     2032881     2037555     2037555
     original coordinates of slave node     =     2034420
     x-coordinate                           = -1.7990E+02
     y-coordinate                           =  3.8506E+01
     z-coordinate                           =  5.9792E+02
     modified coordinates of slave node     =     2034420
     x-coordinate                           = -1.7988E+02
     y-coordinate                           =  3.8468E+01
     z-coordinate                           =  5.9792E+02
 
 *** Warning 40565 (SOL+565)
     Initialization
     contact interface #                    =     2000000
     penetrating node #                     =     3000675
     segment #                              =       32598
     penetration                            = -4.4965E-01
     remaining distance to shell midsurface =  1.5635E-01
     s,t                                    = -6.0560E-01  3.3843E-01
     penetrated segment nodes:
     2010862     2010496     2032862     3040969
     original coordinates of slave node     =     3000675
     x-coordinate                           = -2.2653E+02
     y-coordinate                           = -3.2248E+01
     z-coordinate                           =  5.2547E+02
     modified coordinates of slave node     =     3000675
     x-coordinate                           = -2.2627E+02
     y-coordinate                           = -3.2168E+01
     z-coordinate                           =  5.2512E+02
 
 *** Warning 40565 (SOL+565)
     Initialization
     contact interface #                    =     2000000
     penetrating node #                     =     3000858
     segment #                              =       32598
     penetration                            = -8.7583E-02
     remaining distance to shell midsurface =  5.1842E-01
     s,t                                    = -9.0187E-01 -5.7793E-01
     penetrated segment nodes:
     2024450     2023926     2024530     2039425
     original coordinates of slave node     =     3000858
     x-coordinate                           = -2.2521E+02
     y-coordinate                           = -3.4688E+01
     z-coordinate                           =  5.2546E+02
     modified coordinates of slave node     =     3000858
     x-coordinate                           = -2.2516E+02
     y-coordinate                           = -3.4672E+01
     z-coordinate                           =  5.2539E+02
 
 *** Warning 40565 (SOL+565)
     Initialization
     contact interface #                    =     2000000
     penetrating node #                     =     3000859
     segment #                              =       32606
     penetration                            = -3.4311E-01
     remaining distance to shell midsurface =  2.6289E-01
     s,t                                    = -5.5957E-02  5.6907E-01
     penetrated segment nodes:
     2023926     2024684     2003007     2039604
     original coordinates of slave node     =     3000859
     x-coordinate                           = -2.2275E+02
     y-coordinate                           = -3.4599E+01
     z-coordinate                           =  5.2674E+02
     modified coordinates of slave node     =     3000859
     x-coordinate                           = -2.2275E+02
     y-coordinate                           = -3.4365E+01
     z-coordinate                           =  5.2649E+02
 
 *** Warning 40565 (SOL+565)
     Initialization
     contact interface #                    =     2000000
     penetrating node #                     =     3001604
     segment #                              =       32515
     penetration                            = -4.4965E-01
     remaining distance to shell midsurface =  1.5635E-01
     s,t                                    =  3.3843E-01 -6.0560E-01
     penetrated segment nodes:
     2035794     2035604     2035605     2015280
     original coordinates of slave node     =     3001604
     x-coordinate                           = -2.2653E+02
     y-coordinate                           =  3.2248E+01
     z-coordinate                           =  5.2547E+02
     modified coordinates of slave node     =     3001604
     x-coordinate                           = -2.2627E+02
     y-coordinate                           =  3.2168E+01
     z-coordinate                           =  5.2512E+02
 
 *** Warning 40565 (SOL+565)
     Initialization
     contact interface #                    =     2000000
     penetrating node #                     =     3001790
     segment #                              =       32515
     penetration                            = -8.7632E-02
     remaining distance to shell midsurface =  5.1837E-01
     s,t                                    = -5.7793E-01 -9.0187E-01
     penetrated segment nodes:
     2015308     2035794     2035794     2035794
     original coordinates of slave node     =     3001790
     x-coordinate                           = -2.2521E+02
     y-coordinate                           =  3.4688E+01
     z-coordinate                           =  5.2546E+02
     modified coordinates of slave node     =     3001790
     x-coordinate                           = -2.2516E+02
     y-coordinate                           =  3.4672E+01
     z-coordinate                           =  5.2539E+02
 
 *** Warning 40565 (SOL+565)
     Initialization
     contact interface #                    =     2000000
     penetrating node #                     =     3001791
     segment #                              =       32507
     penetration                            = -3.4311E-01
     remaining distance to shell midsurface =  2.6289E-01
     s,t                                    =  5.6907E-01 -5.5957E-02
     penetrated segment nodes:
     2035604     2035604     2035604     2035604
     original coordinates of slave node     =     3001791
     x-coordinate                           = -2.2275E+02
     y-coordinate                           =  3.4599E+01
     z-coordinate                           =  5.2674E+02
     modified coordinates of slave node     =     3001791
     x-coordinate                           = -2.2275E+02
     y-coordinate                           =  3.4365E+01
     z-coordinate                           =  5.2649E+02
 
 summary of initial penetration for interface #=     2000000
   number of warning messages                  =           7
   number of penetrating nodes                 =           7
   number of penetrating node eliminated       =           0
   min penetration distance                    =  4.0893E-02
   max penetration distance                    =  4.4965E-01
 
 *** Warning 41187 (SOL+1187)
     *CONSTRAINED_JOINT_STIFFNESS_GENERALIZED 3500503
     uses the incremental update formulation which is accurate
     only for single axis rotation.
     The total formulation is recommended for compound rotations
     (see JNTF on *CONTROL_RIGID).
     Based on the inputed coordinate systems, the
     calculated initial rotations in degrees are
       phi = 0.0000000 theta= 0.0000009 psi= -0.0000017
 
 *** Warning 41187 (SOL+1187)
     *CONSTRAINED_JOINT_STIFFNESS_GENERALIZED 3500507
     uses the incremental update formulation which is accurate
     only for single axis rotation.
     The total formulation is recommended for compound rotations
     (see JNTF on *CONTROL_RIGID).
     Based on the inputed coordinate systems, the
     calculated initial rotations in degrees are
       phi = 0.0000000 theta= -0.0000001 psi= -0.0000017
 
 *** Warning 41187 (SOL+1187)
     *CONSTRAINED_JOINT_STIFFNESS_GENERALIZED 3500508
     uses the incremental update formulation which is accurate
     only for single axis rotation.
     The total formulation is recommended for compound rotations
     (see JNTF on *CONTROL_RIGID).
     Based on the inputed coordinate systems, the
     calculated initial rotations in degrees are
       phi = 0.0000000 theta= -0.0000009 psi= -0.0000017
 
 *** Warning 41187 (SOL+1187)
     *CONSTRAINED_JOINT_STIFFNESS_GENERALIZED 3500511
     uses the incremental update formulation which is accurate
     only for single axis rotation.
     The total formulation is recommended for compound rotations
     (see JNTF on *CONTROL_RIGID).
     Based on the inputed coordinate systems, the
     calculated initial rotations in degrees are
       phi = 0.0000000 theta= -0.0000017 psi= 0.0000017
 
 *** Warning 41187 (SOL+1187)
     *CONSTRAINED_JOINT_STIFFNESS_GENERALIZED 3500512
     uses the incremental update formulation which is accurate
     only for single axis rotation.
     The total formulation is recommended for compound rotations
     (see JNTF on *CONTROL_RIGID).
     Based on the inputed coordinate systems, the
     calculated initial rotations in degrees are
       phi = 0.0000000 theta= 0.0000017 psi= -0.0000034
 
 *** Warning 41187 (SOL+1187)
     *CONSTRAINED_JOINT_STIFFNESS_GENERALIZED 3501503
     uses the incremental update formulation which is accurate
     only for single axis rotation.
     The total formulation is recommended for compound rotations
     (see JNTF on *CONTROL_RIGID).
     Based on the inputed coordinate systems, the
     calculated initial rotations in degrees are
       phi = 0.0000000 theta= -0.0000009 psi= -0.0000017
 
 *** Warning 41187 (SOL+1187)
     *CONSTRAINED_JOINT_STIFFNESS_GENERALIZED 3501507
     uses the incremental update formulation which is accurate
     only for single axis rotation.
     The total formulation is recommended for compound rotations
     (see JNTF on *CONTROL_RIGID).
     Based on the inputed coordinate systems, the
     calculated initial rotations in degrees are
       phi = 0.0000000 theta= 0.0000001 psi= -0.0000017
 
 *** Warning 41187 (SOL+1187)
     *CONSTRAINED_JOINT_STIFFNESS_GENERALIZED 3501508
     uses the incremental update formulation which is accurate
     only for single axis rotation.
     The total formulation is recommended for compound rotations
     (see JNTF on *CONTROL_RIGID).
     Based on the inputed coordinate systems, the
     calculated initial rotations in degrees are
       phi = 0.0000000 theta= 0.0000009 psi= -0.0000017
 
 *** Warning 41187 (SOL+1187)
     *CONSTRAINED_JOINT_STIFFNESS_GENERALIZED 3501511
     uses the incremental update formulation which is accurate
     only for single axis rotation.
     The total formulation is recommended for compound rotations
     (see JNTF on *CONTROL_RIGID).
     Based on the inputed coordinate systems, the
     calculated initial rotations in degrees are
       phi = 0.0000000 theta= 0.0000017 psi= 0.0000017
 
 *** Warning 41187 (SOL+1187)
     *CONSTRAINED_JOINT_STIFFNESS_GENERALIZED 3501512
     uses the incremental update formulation which is accurate
     only for single axis rotation.
     The total formulation is recommended for compound rotations
     (see JNTF on *CONTROL_RIGID).
     Based on the inputed coordinate systems, the
     calculated initial rotations in degrees are
       phi = 0.0000000 theta= -0.0000017 psi= -0.0000034

 calculation with mass scaling for minimum dt
    added mass   =   2.1359E-05
    physical mass=   9.7200E+01
    ratio        =   2.1974E-07
       1 t 0.0000E+00 dt 3.00E-04 flush i/o buffers            06/12/20 11:48:26
       1 t 0.0000E+00 dt 3.00E-04 write d3plot file            06/12/20 11:48:26
 Sensor            120000 fired    at time  1.1988E-03
 Pretensioner      120001 fired    at time  1.4985E-03
 Pretensioner      120002 fired    at time  1.4985E-03
    5000 t 1.4982E+00 dt 3.00E-04 flush i/o buffers            06/12/20 11:50:17
   10000 t 2.9967E+00 dt 3.00E-04 flush i/o buffers            06/12/20 11:52:09
   15000 t 4.4952E+00 dt 3.00E-04 flush i/o buffers            06/12/20 11:54:18
   20000 t 5.9937E+00 dt 3.00E-04 flush i/o buffers            06/12/20 11:56:31
   25000 t 7.4922E+00 dt 3.00E-04 flush i/o buffers            06/12/20 11:58:27
   30000 t 8.9907E+00 dt 3.00E-04 flush i/o buffers            06/12/20 12:00:22
   35000 t 1.0489E+01 dt 3.00E-04 flush i/o buffers            06/12/20 12:02:17
   40000 t 1.1988E+01 dt 3.00E-04 flush i/o buffers            06/12/20 12:04:29
   45000 t 1.3486E+01 dt 3.00E-04 flush i/o buffers            06/12/20 12:06:24
   50000 t 1.4985E+01 dt 3.00E-04 flush i/o buffers            06/12/20 12:08:19
   55000 t 1.6483E+01 dt 3.00E-04 flush i/o buffers            06/12/20 12:10:15
   60000 t 1.7982E+01 dt 3.00E-04 flush i/o buffers            06/12/20 12:12:12
   65000 t 1.9480E+01 dt 3.00E-04 flush i/o buffers            06/12/20 12:14:09
   70000 t 2.0979E+01 dt 3.00E-04 flush i/o buffers            06/12/20 12:16:05
   75000 t 2.2477E+01 dt 3.00E-04 flush i/o buffers            06/12/20 12:18:01
   80000 t 2.3976E+01 dt 3.00E-04 flush i/o buffers            06/12/20 12:19:58
   85000 t 2.5474E+01 dt 3.00E-04 flush i/o buffers            06/12/20 12:21:54
   90000 t 2.6973E+01 dt 3.00E-04 flush i/o buffers            06/12/20 12:23:50
   95000 t 2.8471E+01 dt 3.00E-04 flush i/o buffers            06/12/20 12:25:47
  100000 t 2.9970E+01 dt 3.00E-04 flush i/o buffers            06/12/20 12:27:43
  105000 t 3.1468E+01 dt 3.00E-04 flush i/o buffers            06/12/20 12:29:39
[...]
 1120000 t 3.3566E+02 dt 3.00E-04 flush i/o buffers            06/12/20 18:53:02
 1125000 t 3.3716E+02 dt 3.00E-04 flush i/o buffers            06/12/20 18:54:48
 1130000 t 3.3866E+02 dt 3.00E-04 flush i/o buffers            06/12/20 18:56:34
 1135000 t 3.4016E+02 dt 3.00E-04 flush i/o buffers            06/12/20 18:58:19
 1140000 t 3.4166E+02 dt 3.00E-04 flush i/o buffers            06/12/20 19:00:05
 1145000 t 3.4316E+02 dt 3.00E-04 flush i/o buffers            06/12/20 19:01:51
 1150000 t 3.4465E+02 dt 3.00E-04 flush i/o buffers            06/12/20 19:03:37
 1155000 t 3.4615E+02 dt 3.00E-04 flush i/o buffers            06/12/20 19:05:23
 1160000 t 3.4765E+02 dt 3.00E-04 flush i/o buffers            06/12/20 19:07:10
 1165000 t 3.4915E+02 dt 3.00E-04 flush i/o buffers            06/12/20 19:08:56
 1167835 t 3.5000E+02 dt 3.00E-04 write d3plot file            06/12/20 19:09:56
 1170000 t 3.5065E+02 dt 3.00E-04 flush i/o buffers            06/12/20 19:10:42
 1175000 t 3.5215E+02 dt 3.00E-04 flush i/o buffers            06/12/20 19:12:28
 1180000 t 3.5365E+02 dt 3.00E-04 flush i/o buffers            06/12/20 19:14:14
 1185000 t 3.5514E+02 dt 3.00E-04 flush i/o buffers            06/12/20 19:16:00
 1190000 t 3.5664E+02 dt 3.00E-04 flush i/o buffers            06/12/20 19:17:45
 1195000 t 3.5814E+02 dt 3.00E-04 flush i/o buffers            06/12/20 19:19:31
 1200000 t 3.5964E+02 dt 3.00E-04 flush i/o buffers            06/12/20 19:21:17
 1205000 t 3.6114E+02 dt 3.00E-04 flush i/o buffers            06/12/20 19:23:03
 1210000 t 3.6264E+02 dt 3.00E-04 flush i/o buffers            06/12/20 19:24:49
 1215000 t 3.6414E+02 dt 3.00E-04 flush i/o buffers            06/12/20 19:26:35
 1220000 t 3.6563E+02 dt 3.00E-04 flush i/o buffers            06/12/20 19:28:21
 1225000 t 3.6713E+02 dt 3.00E-04 flush i/o buffers            06/12/20 19:30:07
 1230000 t 3.6863E+02 dt 3.00E-04 flush i/o buffers            06/12/20 19:31:53
 1235000 t 3.7013E+02 dt 3.00E-04 flush i/o buffers            06/12/20 19:33:39
 1240000 t 3.7163E+02 dt 3.00E-04 flush i/o buffers            06/12/20 19:35:25
 1245000 t 3.7313E+02 dt 3.00E-04 flush i/o buffers            06/12/20 19:37:10
 1250000 t 3.7462E+02 dt 3.00E-04 flush i/o buffers            06/12/20 19:38:56
 1255000 t 3.7612E+02 dt 3.00E-04 flush i/o buffers            06/12/20 19:40:42
 1260000 t 3.7762E+02 dt 3.00E-04 flush i/o buffers            06/12/20 19:42:28
 1265000 t 3.7912E+02 dt 3.00E-04 flush i/o buffers            06/12/20 19:44:14
 1270000 t 3.8062E+02 dt 3.00E-04 flush i/o buffers            06/12/20 19:46:00
 1275000 t 3.8212E+02 dt 3.00E-04 flush i/o buffers            06/12/20 19:47:46
 1280000 t 3.8362E+02 dt 3.00E-04 flush i/o buffers            06/12/20 19:49:32
 1285000 t 3.8511E+02 dt 3.00E-04 flush i/o buffers            06/12/20 19:51:18
 1290000 t 3.8661E+02 dt 3.00E-04 flush i/o buffers            06/12/20 19:53:04
 1295000 t 3.8811E+02 dt 3.00E-04 flush i/o buffers            06/12/20 19:54:50
 1300000 t 3.8961E+02 dt 3.00E-04 flush i/o buffers            06/12/20 19:56:36
 1305000 t 3.9111E+02 dt 3.00E-04 flush i/o buffers            06/12/20 19:58:22
 1310000 t 3.9261E+02 dt 3.00E-04 flush i/o buffers            06/12/20 20:00:08
 1315000 t 3.9411E+02 dt 3.00E-04 flush i/o buffers            06/12/20 20:01:55
 1320000 t 3.9560E+02 dt 3.00E-04 flush i/o buffers            06/12/20 20:03:40
 1325000 t 3.9710E+02 dt 3.00E-04 flush i/o buffers            06/12/20 20:05:26
 1330000 t 3.9860E+02 dt 3.00E-04 flush i/o buffers            06/12/20 20:07:14
 1334669 t 4.0000E+02 dt 3.00E-04 write d3plot file            06/12/20 20:08:53
 1335000 t 4.0010E+02 dt 3.00E-04 flush i/o buffers            06/12/20 20:09:00
 1340000 t 4.0160E+02 dt 3.00E-04 flush i/o buffers            06/12/20 20:10:46
 1345000 t 4.0310E+02 dt 3.00E-04 flush i/o buffers            06/12/20 20:12:32
 1350000 t 4.0459E+02 dt 3.00E-04 flush i/o buffers            06/12/20 20:14:18
 1355000 t 4.0609E+02 dt 3.00E-04 flush i/o buffers            06/12/20 20:16:04
 1360000 t 4.0759E+02 dt 3.00E-04 flush i/o buffers            06/12/20 20:17:50
 1365000 t 4.0909E+02 dt 3.00E-04 flush i/o buffers            06/12/20 20:19:36
 1370000 t 4.1059E+02 dt 3.00E-04 flush i/o buffers            06/12/20 20:21:22
 1375000 t 4.1209E+02 dt 3.00E-04 flush i/o buffers            06/12/20 20:23:08
 1380000 t 4.1359E+02 dt 3.00E-04 flush i/o buffers            06/12/20 20:24:54
 1385000 t 4.1508E+02 dt 3.00E-04 flush i/o buffers            06/12/20 20:26:40
 1390000 t 4.1658E+02 dt 3.00E-04 flush i/o buffers            06/12/20 20:28:26
 1395000 t 4.1808E+02 dt 3.00E-04 flush i/o buffers            06/12/20 20:30:12
 1400000 t 4.1958E+02 dt 3.00E-04 flush i/o buffers            06/12/20 20:31:58
 1405000 t 4.2108E+02 dt 3.00E-04 flush i/o buffers            06/12/20 20:33:44
 1410000 t 4.2258E+02 dt 3.00E-04 flush i/o buffers            06/12/20 20:35:30
 1415000 t 4.2408E+02 dt 3.00E-04 flush i/o buffers            06/12/20 20:37:16
 1420000 t 4.2557E+02 dt 3.00E-04 flush i/o buffers            06/12/20 20:39:02
 1425000 t 4.2707E+02 dt 3.00E-04 flush i/o buffers            06/12/20 20:40:49
 1430000 t 4.2857E+02 dt 3.00E-04 flush i/o buffers            06/12/20 20:42:35
 1435000 t 4.3007E+02 dt 3.00E-04 flush i/o buffers            06/12/20 20:44:21
 1440000 t 4.3157E+02 dt 3.00E-04 flush i/o buffers            06/12/20 20:46:07
 1445000 t 4.3307E+02 dt 3.00E-04 flush i/o buffers            06/12/20 20:47:53
 1450000 t 4.3456E+02 dt 3.00E-04 flush i/o buffers            06/12/20 20:49:39
 1455000 t 4.3606E+02 dt 3.00E-04 flush i/o buffers            06/12/20 20:51:25
 1460000 t 4.3756E+02 dt 3.00E-04 flush i/o buffers            06/12/20 20:53:11
 1465000 t 4.3906E+02 dt 3.00E-04 flush i/o buffers            06/12/20 20:54:58
 1470000 t 4.4056E+02 dt 3.00E-04 flush i/o buffers            06/12/20 20:56:44
 1475000 t 4.4206E+02 dt 3.00E-04 flush i/o buffers            06/12/20 20:58:30
 1480000 t 4.4356E+02 dt 3.00E-04 flush i/o buffers            06/12/20 21:00:16
 1485000 t 4.4505E+02 dt 3.00E-04 flush i/o buffers            06/12/20 21:02:02
 1490000 t 4.4655E+02 dt 3.00E-04 flush i/o buffers            06/12/20 21:03:48
 1495000 t 4.4805E+02 dt 3.00E-04 flush i/o buffers            06/12/20 21:05:34
 1500000 t 4.4955E+02 dt 3.00E-04 flush i/o buffers            06/12/20 21:07:22
 1501502 t 4.5000E+02 dt 3.00E-04 write d3plot file            06/12/20 21:07:54
 1505000 t 4.5105E+02 dt 3.00E-04 flush i/o buffers            06/12/20 21:09:09
 1510000 t 4.5255E+02 dt 3.00E-04 flush i/o buffers            06/12/20 21:10:55
 1515000 t 4.5405E+02 dt 3.00E-04 flush i/o buffers            06/12/20 21:12:41
 1520000 t 4.5554E+02 dt 3.00E-04 flush i/o buffers            06/12/20 21:14:27
 1525000 t 4.5704E+02 dt 3.00E-04 flush i/o buffers            06/12/20 21:16:13
 1530000 t 4.5854E+02 dt 3.00E-04 flush i/o buffers            06/12/20 21:18:00
 1535000 t 4.6004E+02 dt 3.00E-04 flush i/o buffers            06/12/20 21:19:46
 1540000 t 4.6154E+02 dt 3.00E-04 flush i/o buffers            06/12/20 21:21:32
 1545000 t 4.6304E+02 dt 3.00E-04 flush i/o buffers            06/12/20 21:23:18
 1550000 t 4.6453E+02 dt 3.00E-04 flush i/o buffers            06/12/20 21:25:04
 1555000 t 4.6603E+02 dt 3.00E-04 flush i/o buffers            06/12/20 21:26:51
 1560000 t 4.6753E+02 dt 3.00E-04 flush i/o buffers            06/12/20 21:28:37
 1565000 t 4.6903E+02 dt 3.00E-04 flush i/o buffers            06/12/20 21:30:23
 1570000 t 4.7053E+02 dt 3.00E-04 flush i/o buffers            06/12/20 21:32:09
 1575000 t 4.7203E+02 dt 3.00E-04 flush i/o buffers            06/12/20 21:33:56
 1580000 t 4.7353E+02 dt 3.00E-04 flush i/o buffers            06/12/20 21:35:42
 1585000 t 4.7502E+02 dt 3.00E-04 flush i/o buffers            06/12/20 21:37:28
 1590000 t 4.7652E+02 dt 3.00E-04 flush i/o buffers            06/12/20 21:39:14
 1595000 t 4.7802E+02 dt 3.00E-04 flush i/o buffers            06/12/20 21:41:00
 1600000 t 4.7952E+02 dt 3.00E-04 flush i/o buffers            06/12/20 21:42:47
 1605000 t 4.8102E+02 dt 3.00E-04 flush i/o buffers            06/12/20 21:44:33
 1610000 t 4.8252E+02 dt 3.00E-04 flush i/o buffers            06/12/20 21:46:19
 1615000 t 4.8402E+02 dt 3.00E-04 flush i/o buffers            06/12/20 21:48:05
 1620000 t 4.8551E+02 dt 3.00E-04 flush i/o buffers            06/12/20 21:49:52
 1625000 t 4.8701E+02 dt 3.00E-04 flush i/o buffers            06/12/20 21:51:38
 1630000 t 4.8851E+02 dt 3.00E-04 flush i/o buffers            06/12/20 21:53:24
 1635000 t 4.9001E+02 dt 3.00E-04 flush i/o buffers            06/12/20 21:55:11
 1640000 t 4.9151E+02 dt 3.00E-04 flush i/o buffers            06/12/20 21:56:57
 1645000 t 4.9301E+02 dt 3.00E-04 flush i/o buffers            06/12/20 21:58:43
 1650000 t 4.9450E+02 dt 3.00E-04 flush i/o buffers            06/12/20 22:00:29
 1655000 t 4.9600E+02 dt 3.00E-04 flush i/o buffers            06/12/20 22:02:16
 1660000 t 4.9750E+02 dt 3.00E-04 flush i/o buffers            06/12/20 22:04:02
 Sensor            120001 fired    at time  4.9900E+02
 1665000 t 4.9900E+02 dt 3.00E-04 flush i/o buffers            06/12/20 22:05:48
 1668336 t 5.0000E+02 dt 3.00E-04 write d3plot file            06/12/20 22:07:01
 1670000 t 5.0050E+02 dt 3.00E-04 flush i/o buffers            06/12/20 22:07:36
 1675000 t 5.0200E+02 dt 3.00E-04 flush i/o buffers            06/12/20 22:09:22
 1680000 t 5.0350E+02 dt 3.00E-04 flush i/o buffers            06/12/20 22:11:08
 1685000 t 5.0499E+02 dt 3.00E-04 flush i/o buffers            06/12/20 22:12:53
 1690000 t 5.0649E+02 dt 3.00E-04 flush i/o buffers            06/12/20 22:14:39
 1695000 t 5.0799E+02 dt 3.00E-04 flush i/o buffers            06/12/20 22:16:24
 1700000 t 5.0949E+02 dt 3.00E-04 flush i/o buffers            06/12/20 22:18:10
 1701706 t 5.1000E+02 dt 3.00E-04 write d3plot file            06/12/20 22:18:46
 1705000 t 5.1099E+02 dt 3.00E-04 flush i/o buffers            06/12/20 22:19:55
 Retractor         120002 locked   at time  5.1242E+02
 1710000 t 5.1249E+02 dt 3.00E-04 flush i/o buffers            06/12/20 22:21:41
 1715000 t 5.1399E+02 dt 3.00E-04 flush i/o buffers            06/12/20 22:23:26
 Retractor         120001 locked   at time  5.1545E+02
 1720000 t 5.1548E+02 dt 3.00E-04 flush i/o buffers            06/12/20 22:25:12
 1725000 t 5.1698E+02 dt 3.00E-04 flush i/o buffers            06/12/20 22:26:57
 1730000 t 5.1848E+02 dt 3.00E-04 flush i/o buffers            06/12/20 22:28:42
 1735000 t 5.1998E+02 dt 3.00E-04 flush i/o buffers            06/12/20 22:30:28
 1735073 t 5.2000E+02 dt 3.00E-04 write d3plot file            06/12/20 22:30:29
 1740000 t 5.2148E+02 dt 3.00E-04 flush i/o buffers            06/12/20 22:32:13
 1745000 t 5.2298E+02 dt 3.00E-04 flush i/o buffers            06/12/20 22:33:58
 1750000 t 5.2447E+02 dt 3.00E-04 flush i/o buffers            06/12/20 22:35:43
 1755000 t 5.2597E+02 dt 3.00E-04 flush i/o buffers            06/12/20 22:37:29
 1760000 t 5.2747E+02 dt 3.00E-04 flush i/o buffers            06/12/20 22:39:14
 1765000 t 5.2897E+02 dt 3.00E-04 flush i/o buffers            06/12/20 22:40:59
 1768440 t 5.3000E+02 dt 3.00E-04 write d3plot file            06/12/20 22:42:12
 1770000 t 5.3047E+02 dt 3.00E-04 flush i/o buffers            06/12/20 22:42:45
 1775000 t 5.3197E+02 dt 3.00E-04 flush i/o buffers            06/12/20 22:44:30
 1780000 t 5.3347E+02 dt 3.00E-04 flush i/o buffers            06/12/20 22:46:16
 1785000 t 5.3496E+02 dt 3.00E-04 flush i/o buffers            06/12/20 22:48:01
 1790000 t 5.3646E+02 dt 3.00E-04 flush i/o buffers            06/12/20 22:49:46
 1795000 t 5.3796E+02 dt 3.00E-04 flush i/o buffers            06/12/20 22:51:32
 1800000 t 5.3946E+02 dt 3.00E-04 flush i/o buffers            06/12/20 22:53:17
 1801806 t 5.4000E+02 dt 3.00E-04 write d3plot file            06/12/20 22:53:56
 1805000 t 5.4096E+02 dt 3.00E-04 flush i/o buffers            06/12/20 22:55:03
 1810000 t 5.4246E+02 dt 3.00E-04 flush i/o buffers            06/12/20 22:56:49
 1815000 t 5.4396E+02 dt 3.00E-04 flush i/o buffers            06/12/20 22:58:34
 1820000 t 5.4545E+02 dt 3.00E-04 flush i/o buffers            06/12/20 23:00:20
 1825000 t 5.4695E+02 dt 3.00E-04 flush i/o buffers            06/12/20 23:02:06
 1830000 t 5.4845E+02 dt 3.00E-04 flush i/o buffers            06/12/20 23:03:52
 1835000 t 5.4995E+02 dt 3.00E-04 flush i/o buffers            06/12/20 23:05:38
 1835173 t 5.5000E+02 dt 3.00E-04 write d3plot file            06/12/20 23:05:42
 1840000 t 5.5145E+02 dt 3.00E-04 flush i/o buffers            06/12/20 23:07:26
 1845000 t 5.5295E+02 dt 3.00E-04 flush i/o buffers            06/12/20 23:09:12
 1850000 t 5.5444E+02 dt 3.00E-04 flush i/o buffers            06/12/20 23:10:59
 1855000 t 5.5594E+02 dt 3.00E-04 flush i/o buffers            06/12/20 23:12:45
 1860000 t 5.5744E+02 dt 3.00E-04 flush i/o buffers            06/12/20 23:14:31
 1865000 t 5.5894E+02 dt 3.00E-04 flush i/o buffers            06/12/20 23:16:17
 1868540 t 5.6000E+02 dt 3.00E-04 write d3plot file            06/12/20 23:17:32
 1870000 t 5.6044E+02 dt 3.00E-04 flush i/o buffers            06/12/20 23:18:03
 1875000 t 5.6194E+02 dt 3.00E-04 flush i/o buffers            06/12/20 23:19:49
 1880000 t 5.6344E+02 dt 3.00E-04 flush i/o buffers            06/12/20 23:21:34
 1885000 t 5.6493E+02 dt 3.00E-04 flush i/o buffers            06/12/20 23:23:20
 1890000 t 5.6643E+02 dt 3.00E-04 flush i/o buffers            06/12/20 23:25:06
 1895000 t 5.6793E+02 dt 3.00E-04 flush i/o buffers            06/12/20 23:26:51
 1900000 t 5.6943E+02 dt 3.00E-04 flush i/o buffers            06/12/20 23:28:37
 1901906 t 5.7000E+02 dt 3.00E-04 write d3plot file            06/12/20 23:29:17
 1905000 t 5.7093E+02 dt 3.00E-04 flush i/o buffers            06/12/20 23:30:23
 1910000 t 5.7243E+02 dt 3.00E-04 flush i/o buffers            06/12/20 23:32:08
 1915000 t 5.7393E+02 dt 3.00E-04 flush i/o buffers            06/12/20 23:33:54
 1920000 t 5.7542E+02 dt 3.00E-04 flush i/o buffers            06/12/20 23:35:39
 1925000 t 5.7692E+02 dt 3.00E-04 flush i/o buffers            06/12/20 23:37:24
 1930000 t 5.7842E+02 dt 3.00E-04 flush i/o buffers            06/12/20 23:39:09
 1935000 t 5.7992E+02 dt 3.00E-04 flush i/o buffers            06/12/20 23:40:54
 1935273 t 5.8000E+02 dt 3.00E-04 write d3plot file            06/12/20 23:41:00
 1940000 t 5.8142E+02 dt 3.00E-04 flush i/o buffers            06/12/20 23:42:40
 1945000 t 5.8292E+02 dt 3.00E-04 flush i/o buffers            06/12/20 23:44:25
 1950000 t 5.8441E+02 dt 3.00E-04 flush i/o buffers            06/12/20 23:46:10
 1955000 t 5.8591E+02 dt 3.00E-04 flush i/o buffers            06/12/20 23:47:55
 1960000 t 5.8741E+02 dt 3.00E-04 flush i/o buffers            06/12/20 23:49:40
 1965000 t 5.8891E+02 dt 3.00E-04 flush i/o buffers            06/12/20 23:51:26
 1968640 t 5.9000E+02 dt 3.00E-04 write d3plot file            06/12/20 23:52:42
 1970000 t 5.9041E+02 dt 3.00E-04 flush i/o buffers            06/12/20 23:53:11
 1975000 t 5.9191E+02 dt 3.00E-04 flush i/o buffers            06/12/20 23:54:55
 1980000 t 5.9341E+02 dt 3.00E-04 flush i/o buffers            06/12/20 23:56:41
 1985000 t 5.9490E+02 dt 3.00E-04 flush i/o buffers            06/12/20 23:58:26
 1990000 t 5.9640E+02 dt 3.00E-04 flush i/o buffers            06/13/20 00:00:13
 1995000 t 5.9790E+02 dt 3.00E-04 flush i/o buffers            06/13/20 00:02:00
 2000000 t 5.9940E+02 dt 3.00E-04 flush i/o buffers            06/13/20 00:03:47
 2002007 t 6.0000E+02 dt 3.00E-04 write d3plot file            06/13/20 00:04:30
 2005000 t 6.0090E+02 dt 3.00E-04 flush i/o buffers            06/13/20 00:05:34
 2010000 t 6.0240E+02 dt 3.00E-04 flush i/o buffers            06/13/20 00:07:23
 2015000 t 6.0390E+02 dt 3.00E-04 flush i/o buffers            06/13/20 00:09:10
 2020000 t 6.0539E+02 dt 3.00E-04 flush i/o buffers            06/13/20 00:10:56
 2025000 t 6.0689E+02 dt 3.00E-04 flush i/o buffers            06/13/20 00:12:43
 2030000 t 6.0839E+02 dt 3.00E-04 flush i/o buffers            06/13/20 00:14:30
 2035000 t 6.0989E+02 dt 3.00E-04 flush i/o buffers            06/13/20 00:16:16
 2035373 t 6.1000E+02 dt 3.00E-04 write d3plot file            06/13/20 00:16:24
 2040000 t 6.1139E+02 dt 3.00E-04 flush i/o buffers            06/13/20 00:18:03
 2045000 t 6.1289E+02 dt 3.00E-04 flush i/o buffers            06/13/20 00:19:49

 *** termination due to out-of-range forces
     number of nodes has out-of-range forces         8
 Node list:
   2031798   2031799   2032064   2032065   3002815   3002816   3002834   3002835
 2046720 t 6.1340E+02 dt 3.00E-04 write d3dump01 file          06/13/20 00:20:25
 2046720 t 6.1340E+02 dt 3.00E-04 write d3plot file            06/13/20 00:20:25
 2046720 t 6.1340E+02 dt 3.00E-04 write d3plot file            06/13/20 00:20:25

 E r r o r   t e r m i n a t i o n                             06/13/20 00:20:26

 S t o r a g e   a l l o c a t i o n   

 Memory required to complete solution   :      23M
 Additional dynamically allocated memory:      15M
                                   Total:      38M

 T i m i n g   i n f o r m a t i o n
                        CPU(seconds)   %CPU  Clock(seconds) %Clock
  ----------------------------------------------------------------
  Keyword Processing ... 1.1000E+01    0.02     1.1031E+01    0.02
    KW Reading ......... 7.0000E+00    0.02     7.8590E+00    0.02
  Initialization ....... 1.0000E+00    0.00     1.9530E+00    0.00
    Init Proc Phase 1 .. 1.0000E+00    0.00     1.0000E+00    0.00
    Init Proc Phase 2 .. 0.0000E+00    0.00     7.6500E-01    0.00
  Init solver .......... 1.0000E+00    0.00     1.6000E-02    0.00
  Element processing ... 2.3289E+04   51.60     2.2958E+04   50.87
    Solids ............. 1.3970E+04   30.95     1.3753E+04   30.47
    Shells ............. 1.9070E+03    4.23     1.9769E+03    4.38
    Beams .............. 1.7600E+02    0.39     1.8879E+02    0.42
  Binary databases ..... 8.0000E+00    0.02     4.7300E+00    0.01
  ASCII database ....... 3.9000E+01    0.09     3.9110E+01    0.09
  Contact algorithm .... 4.8560E+03   10.76     4.9117E+03   10.88
    Interf. ID   2000000 3.2830E+03    7.27     3.3178E+03    7.35
    Interf. ID   2000003 6.7900E+02    1.50     6.8359E+02    1.51
    Interf. ID      1000 4.1100E+02    0.91     4.0365E+02    0.89
    Interf. ID      2000 4.7500E+02    1.05     4.9275E+02    1.09
  Rigid Bodies ......... 1.1120E+03    2.46     1.0803E+03    2.39
  Restraint system ..... 1.0000E+01    0.02     1.6268E+01    0.04
  Time step size ....... 8.0000E+00    0.02     1.0769E+01    0.02
  Rigid wall ........... 1.0000E+00    0.00     2.6700E-01    0.00
  Bnd prescribed opt ... 1.4000E+01    0.03     1.6174E+01    0.04
  Group force file ..... 4.0000E+00    0.01     4.6560E+00    0.01
  Others ............... 2.3380E+03    5.18     2.3529E+03    5.21
  Misc. 1 .............. 4.7690E+03   10.57     4.9465E+03   10.96
  Misc. 2 .............. 3.6610E+03    8.11     3.8208E+03    8.47
  Misc. 3 .............. 5.6000E+01    0.12     4.9118E+01    0.11
  Misc. 4 .............. 4.9550E+03   10.98     4.9087E+03   10.88
  ----------------------------------------------------------------
  T o t a l s            4.5133E+04  100.00     4.5133E+04  100.00

 Problem time       =    6.1340E+02
 Problem cycle      =   2046720
 Total CPU time     =     45133 seconds (  12 hours 32 minutes 13 seconds)
 CPU time per zone cycle  =         72.915 nanoseconds
 Clock time per zone cycle=         72.913 nanoseconds

 Number of CPU's    4
 NLQ used/max     136/  136
 Start time   06/12/2020 11:48:13  
 End time     06/13/2020 00:20:26  
 Elapsed time   45133 seconds for 2046720 cycles using  4 SMP threads
             (     12 hours 32 minutes 13 seconds)

 E r r o r   t e r m i n a t i o n                             06/13/20 00:20:26
